  Page 1                                    Wed Aug 24 17:12:44 2022

  ******************************************************************
  *                           E P A N E T                          *
  *                   Hydraulic and Water Quality                  *
  *                   Analysis for Pipe Networks                   *
  *                         Version 2.2                            *
  ******************************************************************
  
  Analysis begun Wed Aug 24 17:12:44 2022

  WARNING: Pump PU8 closed because cannot deliver head at 0:00:00 hrs.
  WARNING: Pump PU9 closed because cannot deliver head at 0:00:00 hrs.
  WARNING: Pump PU11 closed because cannot deliver head at 0:00:00 hrs.
   
  WARNING: Pump PU8 closed because cannot deliver head at 0:00:00 hrs.
  WARNING: Pump PU9 closed because cannot deliver head at 0:00:00 hrs.
  WARNING: Pump PU11 closed because cannot deliver head at 0:00:00 hrs.
   
  WARNING: Pump PU8 closed because cannot deliver head at 0:00:00 hrs.
  WARNING: Pump PU9 closed because cannot deliver head at 0:00:00 hrs.
  WARNING: Pump PU11 closed because cannot deliver head at 0:00:00 hrs.
   
  WARNING: Pump PU7 closed because cannot deliver head at 0:00:00 hrs.
   
  WARNING: Pump PU7 closed because cannot deliver head at 0:00:00 hrs.
   
  WARNING: Pump PU7 closed because cannot deliver head at 0:00:00 hrs.
  WARNING: Pump PU8 closed because cannot deliver head at 0:00:00 hrs.
  WARNING: Pump PU9 closed because cannot deliver head at 0:00:00 hrs.
  WARNING: Pump PU11 closed because cannot deliver head at 0:00:00 hrs.
   
  WARNING: Pump PU8 closed because cannot deliver head at 0:00:00 hrs.
  WARNING: Pump PU9 closed because cannot deliver head at 0:00:00 hrs.
  WARNING: Pump PU11 closed because cannot deliver head at 0:00:00 hrs.
   
  WARNING: Pump PU8 closed because cannot deliver head at 0:00:00 hrs.
  WARNING: Pump PU9 closed because cannot deliver head at 0:00:00 hrs.
  WARNING: Pump PU11 closed because cannot deliver head at 0:00:00 hrs.
   
  WARNING: Pump PU7 closed because cannot deliver head at 0:00:00 hrs.
   
  WARNING: Pump PU7 closed because cannot deliver head at 0:00:00 hrs.
  WARNING: Pump PU8 closed because cannot deliver head at 0:00:00 hrs.
  WARNING: Pump PU9 closed because cannot deliver head at 0:00:00 hrs.
  WARNING: Pump PU11 closed because cannot deliver head at 0:00:00 hrs.
   
  WARNING: Pump PU8 closed because cannot deliver head at 0:00:00 hrs.
  WARNING: Pump PU9 closed because cannot deliver head at 0:00:00 hrs.
  WARNING: Pump PU11 closed because cannot deliver head at 0:00:00 hrs.
   
  WARNING: Pump PU7 closed because cannot deliver head at 0:00:00 hrs.
  WARNING: Pump PU8 closed because cannot deliver head at 0:00:00 hrs.
  WARNING: Pump PU9 closed because cannot deliver head at 0:00:00 hrs.
  WARNING: Pump PU11 closed because cannot deliver head at 0:00:00 hrs.
   
  WARNING: Pump PU8 closed because cannot deliver head at 0:00:00 hrs.
  WARNING: Pump PU9 closed because cannot deliver head at 0:00:00 hrs.
  WARNING: Pump PU11 closed because cannot deliver head at 0:00:00 hrs.
   
  WARNING: Pump PU7 closed because cannot deliver head at 0:00:00 hrs.
  WARNING: Pump PU8 closed because cannot deliver head at 0:00:00 hrs.
  WARNING: Pump PU9 closed because cannot deliver head at 0:00:00 hrs.
  WARNING: Pump PU11 closed because cannot deliver head at 0:00:00 hrs.
   
  WARNING: Pump PU7 closed because cannot deliver head at 0:00:00 hrs.
  WARNING: Pump PU8 closed because cannot deliver head at 0:00:00 hrs.
  WARNING: Pump PU9 closed because cannot deliver head at 0:00:00 hrs.
  WARNING: Pump PU11 closed because cannot deliver head at 0:00:00 hrs.
   
  WARNING: Pump PU7 closed because cannot deliver head at 0:00:00 hrs.
  WARNING: Pump PU8 closed because cannot deliver head at 0:00:00 hrs.
  WARNING: Pump PU9 closed because cannot deliver head at 0:00:00 hrs.
  WARNING: Pump PU11 closed because cannot deliver head at 0:00:00 hrs.
   
  WARNING: Pump PU8 closed because cannot deliver head at 0:00:00 hrs.
  WARNING: Pump PU9 closed because cannot deliver head at 0:00:00 hrs.
  WARNING: Pump PU11 closed because cannot deliver head at 0:00:00 hrs.
   
  WARNING: Pump PU8 closed because cannot deliver head at 0:00:00 hrs.
  WARNING: Pump PU9 closed because cannot deliver head at 0:00:00 hrs.
  WARNING: Pump PU11 closed because cannot deliver head at 0:00:00 hrs.
   
  WARNING: Pump PU7 closed because cannot deliver head at 0:00:00 hrs.
   
  WARNING: Pump PU7 closed because cannot deliver head at 0:00:00 hrs.
   
  WARNING: Pump PU7 closed because cannot deliver head at 0:00:00 hrs.
  WARNING: Pump PU8 closed because cannot deliver head at 0:00:00 hrs.
  WARNING: Pump PU9 closed because cannot deliver head at 0:00:00 hrs.
  WARNING: Pump PU11 closed because cannot deliver head at 0:00:00 hrs.
   
  WARNING: Pump PU7 closed because cannot deliver head at 0:00:00 hrs.
  WARNING: Pump PU8 closed because cannot deliver head at 0:00:00 hrs.
  WARNING: Pump PU9 closed because cannot deliver head at 0:00:00 hrs.
  WARNING: Pump PU11 closed because cannot deliver head at 0:00:00 hrs.
   
  WARNING: Pump PU7 closed because cannot deliver head at 0:00:00 hrs.
   
  WARNING: Pump PU7 closed because cannot deliver head at 0:00:00 hrs.
   
  WARNING: Pump PU7 closed because cannot deliver head at 0:00:00 hrs.
  WARNING: Pump PU8 closed because cannot deliver head at 0:00:00 hrs.
  WARNING: Pump PU9 closed because cannot deliver head at 0:00:00 hrs.
  WARNING: Pump PU11 closed because cannot deliver head at 0:00:00 hrs.
   
  WARNING: Pump PU7 closed because cannot deliver head at 0:00:00 hrs.
  WARNING: Pump PU8 closed because cannot deliver head at 0:00:00 hrs.
  WARNING: Pump PU9 closed because cannot deliver head at 0:00:00 hrs.
  WARNING: Pump PU11 closed because cannot deliver head at 0:00:00 hrs.
   
  WARNING: Pump PU8 closed because cannot deliver head at 0:00:00 hrs.
  WARNING: Pump PU9 closed because cannot deliver head at 0:00:00 hrs.
  WARNING: Pump PU11 closed because cannot deliver head at 0:00:00 hrs.
   
  WARNING: Pump PU8 closed because cannot deliver head at 0:00:00 hrs.
  WARNING: Pump PU9 closed because cannot deliver head at 0:00:00 hrs.
  WARNING: Pump PU11 closed because cannot deliver head at 0:00:00 hrs.
   
  WARNING: Pump PU7 closed because cannot deliver head at 0:00:00 hrs.
   
  WARNING: Pump PU8 closed because cannot deliver head at 0:00:00 hrs.
  WARNING: Pump PU9 closed because cannot deliver head at 0:00:00 hrs.
  WARNING: Pump PU11 closed because cannot deliver head at 0:00:00 hrs.
   
  WARNING: Pump PU7 closed because cannot deliver head at 0:00:00 hrs.
  WARNING: Pump PU8 closed because cannot deliver head at 0:00:00 hrs.
  WARNING: Pump PU9 closed because cannot deliver head at 0:00:00 hrs.
  WARNING: Pump PU11 closed because cannot deliver head at 0:00:00 hrs.
   
  WARNING: Pump PU7 closed because cannot deliver head at 0:00:00 hrs.
   
  WARNING: Pump PU7 closed because cannot deliver head at 0:00:00 hrs.
  WARNING: Pump PU8 closed because cannot deliver head at 0:00:00 hrs.
  WARNING: Pump PU9 closed because cannot deliver head at 0:00:00 hrs.
  WARNING: Pump PU11 closed because cannot deliver head at 0:00:00 hrs.
   
  WARNING: Pump PU7 closed because cannot deliver head at 0:00:00 hrs.
   
  WARNING: Pump PU7 closed because cannot deliver head at 0:00:00 hrs.
   
  WARNING: Pump PU7 closed because cannot deliver head at 0:00:00 hrs.
   
  WARNING: Pump PU7 closed because cannot deliver head at 0:00:00 hrs.
  WARNING: Pump PU8 closed because cannot deliver head at 0:00:00 hrs.
  WARNING: Pump PU9 closed because cannot deliver head at 0:00:00 hrs.
  WARNING: Pump PU11 closed because cannot deliver head at 0:00:00 hrs.
   
  WARNING: Pump PU7 closed because cannot deliver head at 0:00:00 hrs.
   
  WARNING: Pump PU7 closed because cannot deliver head at 0:00:00 hrs.
   
  WARNING: Pump PU7 closed because cannot deliver head at 0:00:00 hrs.
  WARNING: Pump PU8 closed because cannot deliver head at 0:00:00 hrs.
  WARNING: Pump PU9 closed because cannot deliver head at 0:00:00 hrs.
  WARNING: Pump PU11 closed because cannot deliver head at 0:00:00 hrs.
   
  WARNING: Pump PU7 closed because cannot deliver head at 0:00:00 hrs.
   
  WARNING: Pump PU8 closed because cannot deliver head at 0:00:00 hrs.
  WARNING: Pump PU9 closed because cannot deliver head at 0:00:00 hrs.
  WARNING: Pump PU11 closed because cannot deliver head at 0:00:00 hrs.
   
  WARNING: Pump PU7 closed because cannot deliver head at 0:00:00 hrs.
   
  WARNING: Pump PU7 closed because cannot deliver head at 0:00:00 hrs.
   
  WARNING: Pump PU7 closed because cannot deliver head at 0:00:00 hrs.
   
  WARNING: Pump PU7 closed because cannot deliver head at 0:00:00 hrs.
   
  WARNING: Pump PU7 closed because cannot deliver head at 0:00:00 hrs.
   
  WARNING: Pump PU7 closed because cannot deliver head at 0:00:00 hrs.
  WARNING: Pump PU8 closed because cannot deliver head at 0:00:00 hrs.
  WARNING: Pump PU9 closed because cannot deliver head at 0:00:00 hrs.
  WARNING: Pump PU11 closed because cannot deliver head at 0:00:00 hrs.
   
  WARNING: Pump PU7 closed because cannot deliver head at 0:00:00 hrs.
  WARNING: Pump PU8 closed because cannot deliver head at 0:00:00 hrs.
  WARNING: Pump PU9 closed because cannot deliver head at 0:00:00 hrs.
  WARNING: Pump PU11 closed because cannot deliver head at 0:00:00 hrs.
   
  WARNING: Pump PU7 closed because cannot deliver head at 0:00:00 hrs.
   
  WARNING: Pump PU7 closed because cannot deliver head at 0:00:00 hrs.
   
  WARNING: Pump PU7 closed because cannot deliver head at 0:00:00 hrs.
   
  WARNING: Pump PU8 closed because cannot deliver head at 0:00:00 hrs.
  WARNING: Pump PU9 closed because cannot deliver head at 0:00:00 hrs.
  WARNING: Pump PU11 closed because cannot deliver head at 0:00:00 hrs.
   
  WARNING: Pump PU7 closed because cannot deliver head at 0:00:00 hrs.
   
  WARNING: Pump PU7 closed because cannot deliver head at 0:00:00 hrs.
  WARNING: Pump PU8 closed because cannot deliver head at 0:00:00 hrs.
  WARNING: Pump PU9 closed because cannot deliver head at 0:00:00 hrs.
  WARNING: Pump PU11 closed because cannot deliver head at 0:00:00 hrs.
   
  WARNING: Pump PU7 closed because cannot deliver head at 0:00:00 hrs.
  WARNING: Pump PU8 closed because cannot deliver head at 0:00:00 hrs.
  WARNING: Pump PU9 closed because cannot deliver head at 0:00:00 hrs.
  WARNING: Pump PU11 closed because cannot deliver head at 0:00:00 hrs.
   
  WARNING: Pump PU8 closed because cannot deliver head at 0:00:00 hrs.
  WARNING: Pump PU9 closed because cannot deliver head at 0:00:00 hrs.
  WARNING: Pump PU11 closed because cannot deliver head at 0:00:00 hrs.
   
  WARNING: Pump PU7 closed because cannot deliver head at 0:00:00 hrs.
  WARNING: Pump PU8 closed because cannot deliver head at 0:00:00 hrs.
  WARNING: Pump PU9 closed because cannot deliver head at 0:00:00 hrs.
  WARNING: Pump PU11 closed because cannot deliver head at 0:00:00 hrs.
   
  WARNING: Pump PU7 closed because cannot deliver head at 0:00:00 hrs.
  WARNING: Pump PU8 closed because cannot deliver head at 0:00:00 hrs.
  WARNING: Pump PU9 closed because cannot deliver head at 0:00:00 hrs.
  WARNING: Pump PU11 closed because cannot deliver head at 0:00:00 hrs.
   
  WARNING: Pump PU7 closed because cannot deliver head at 0:00:00 hrs.
  WARNING: Pump PU8 closed because cannot deliver head at 0:00:00 hrs.
  WARNING: Pump PU9 closed because cannot deliver head at 0:00:00 hrs.
  WARNING: Pump PU11 closed because cannot deliver head at 0:00:00 hrs.
   
  WARNING: Pump PU8 closed because cannot deliver head at 0:00:00 hrs.
  WARNING: Pump PU9 closed because cannot deliver head at 0:00:00 hrs.
  WARNING: Pump PU11 closed because cannot deliver head at 0:00:00 hrs.
   
  WARNING: Pump PU8 closed because cannot deliver head at 0:00:00 hrs.
  WARNING: Pump PU9 closed because cannot deliver head at 0:00:00 hrs.
  WARNING: Pump PU11 closed because cannot deliver head at 0:00:00 hrs.
   
  WARNING: Pump PU8 closed because cannot deliver head at 0:00:00 hrs.
  WARNING: Pump PU9 closed because cannot deliver head at 0:00:00 hrs.
  WARNING: Pump PU11 closed because cannot deliver head at 0:00:00 hrs.
   
  WARNING: Pump PU8 closed because cannot deliver head at 0:00:00 hrs.
  WARNING: Pump PU9 closed because cannot deliver head at 0:00:00 hrs.
  WARNING: Pump PU11 closed because cannot deliver head at 0:00:00 hrs.
   
  WARNING: Pump PU7 closed because cannot deliver head at 0:00:00 hrs.
  WARNING: Pump PU8 closed because cannot deliver head at 0:00:00 hrs.
  WARNING: Pump PU9 closed because cannot deliver head at 0:00:00 hrs.
  WARNING: Pump PU11 closed because cannot deliver head at 0:00:00 hrs.
   
  WARNING: Pump PU7 closed because cannot deliver head at 0:00:00 hrs.
   
  WARNING: Pump PU7 closed because cannot deliver head at 0:00:00 hrs.
   
  WARNING: Pump PU8 closed because cannot deliver head at 0:00:00 hrs.
  WARNING: Pump PU9 closed because cannot deliver head at 0:00:00 hrs.
  WARNING: Pump PU11 closed because cannot deliver head at 0:00:00 hrs.
   
  WARNING: Pump PU7 closed because cannot deliver head at 0:00:00 hrs.
   
  WARNING: Pump PU8 closed because cannot deliver head at 0:00:00 hrs.
  WARNING: Pump PU9 closed because cannot deliver head at 0:00:00 hrs.
  WARNING: Pump PU11 closed because cannot deliver head at 0:00:00 hrs.
   
  WARNING: Pump PU7 closed because cannot deliver head at 0:00:00 hrs.
   
  WARNING: Pump PU8 closed because cannot deliver head at 0:00:00 hrs.
  WARNING: Pump PU9 closed because cannot deliver head at 0:00:00 hrs.
  WARNING: Pump PU11 closed because cannot deliver head at 0:00:00 hrs.
   
  WARNING: Pump PU8 closed because cannot deliver head at 0:00:00 hrs.
  WARNING: Pump PU9 closed because cannot deliver head at 0:00:00 hrs.
  WARNING: Pump PU11 closed because cannot deliver head at 0:00:00 hrs.
   
  WARNING: Pump PU8 closed because cannot deliver head at 0:00:00 hrs.
  WARNING: Pump PU9 closed because cannot deliver head at 0:00:00 hrs.
  WARNING: Pump PU11 closed because cannot deliver head at 0:00:00 hrs.
   
  WARNING: Pump PU7 closed because cannot deliver head at 0:00:00 hrs.
  WARNING: Pump PU8 closed because cannot deliver head at 0:00:00 hrs.
  WARNING: Pump PU9 closed because cannot deliver head at 0:00:00 hrs.
  WARNING: Pump PU11 closed because cannot deliver head at 0:00:00 hrs.
   
  WARNING: Pump PU8 closed because cannot deliver head at 0:00:00 hrs.
  WARNING: Pump PU9 closed because cannot deliver head at 0:00:00 hrs.
  WARNING: Pump PU11 closed because cannot deliver head at 0:00:00 hrs.
   
  WARNING: Pump PU7 closed because cannot deliver head at 0:00:00 hrs.
   
  WARNING: Pump PU7 closed because cannot deliver head at 0:00:00 hrs.
   
  WARNING: Pump PU7 closed because cannot deliver head at 0:00:00 hrs.
   
  WARNING: Pump PU7 closed because cannot deliver head at 0:00:00 hrs.
   
  WARNING: Pump PU8 closed because cannot deliver head at 0:00:00 hrs.
  WARNING: Pump PU9 closed because cannot deliver head at 0:00:00 hrs.
  WARNING: Pump PU11 closed because cannot deliver head at 0:00:00 hrs.
   
  WARNING: Pump PU7 closed because cannot deliver head at 0:00:00 hrs.
  WARNING: Pump PU8 closed because cannot deliver head at 0:00:00 hrs.
  WARNING: Pump PU9 closed because cannot deliver head at 0:00:00 hrs.
  WARNING: Pump PU11 closed because cannot deliver head at 0:00:00 hrs.
   
  WARNING: Pump PU7 closed because cannot deliver head at 0:00:00 hrs.
   
  WARNING: Pump PU8 closed because cannot deliver head at 0:00:00 hrs.
  WARNING: Pump PU9 closed because cannot deliver head at 0:00:00 hrs.
  WARNING: Pump PU11 closed because cannot deliver head at 0:00:00 hrs.
   
  WARNING: Pump PU7 closed because cannot deliver head at 0:00:00 hrs.
  WARNING: Pump PU8 closed because cannot deliver head at 0:00:00 hrs.
  WARNING: Pump PU9 closed because cannot deliver head at 0:00:00 hrs.
  WARNING: Pump PU11 closed because cannot deliver head at 0:00:00 hrs.
   
  WARNING: Pump PU7 closed because cannot deliver head at 0:00:00 hrs.
  WARNING: Pump PU8 closed because cannot deliver head at 0:00:00 hrs.
  WARNING: Pump PU9 closed because cannot deliver head at 0:00:00 hrs.
  WARNING: Pump PU11 closed because cannot deliver head at 0:00:00 hrs.
   
  WARNING: Pump PU7 closed because cannot deliver head at 0:00:00 hrs.
   
  WARNING: Pump PU7 closed because cannot deliver head at 0:00:00 hrs.
  WARNING: Pump PU8 closed because cannot deliver head at 0:00:00 hrs.
  WARNING: Pump PU9 closed because cannot deliver head at 0:00:00 hrs.
  WARNING: Pump PU11 closed because cannot deliver head at 0:00:00 hrs.
   
  WARNING: Pump PU7 closed because cannot deliver head at 0:00:00 hrs.
  WARNING: Pump PU8 closed because cannot deliver head at 0:00:00 hrs.
  WARNING: Pump PU9 closed because cannot deliver head at 0:00:00 hrs.
  WARNING: Pump PU11 closed because cannot deliver head at 0:00:00 hrs.
   
  WARNING: Pump PU8 closed because cannot deliver head at 0:00:00 hrs.
  WARNING: Pump PU9 closed because cannot deliver head at 0:00:00 hrs.
  WARNING: Pump PU11 closed because cannot deliver head at 0:00:00 hrs.
   
  WARNING: Pump PU7 closed because cannot deliver head at 0:00:00 hrs.
   
  WARNING: Pump PU8 closed because cannot deliver head at 0:00:00 hrs.
  WARNING: Pump PU9 closed because cannot deliver head at 0:00:00 hrs.
  WARNING: Pump PU11 closed because cannot deliver head at 0:00:00 hrs.
   
  WARNING: Pump PU7 closed because cannot deliver head at 0:00:00 hrs.
  WARNING: Pump PU8 closed because cannot deliver head at 0:00:00 hrs.
  WARNING: Pump PU9 closed because cannot deliver head at 0:00:00 hrs.
  WARNING: Pump PU11 closed because cannot deliver head at 0:00:00 hrs.
   
  WARNING: Pump PU7 closed because cannot deliver head at 0:00:00 hrs.
   
  WARNING: Pump PU7 closed because cannot deliver head at 0:00:00 hrs.
  WARNING: Pump PU8 closed because cannot deliver head at 0:00:00 hrs.
  WARNING: Pump PU9 closed because cannot deliver head at 0:00:00 hrs.
  WARNING: Pump PU11 closed because cannot deliver head at 0:00:00 hrs.
   
  WARNING: Pump PU8 closed because cannot deliver head at 0:00:00 hrs.
  WARNING: Pump PU9 closed because cannot deliver head at 0:00:00 hrs.
  WARNING: Pump PU11 closed because cannot deliver head at 0:00:00 hrs.
   
  WARNING: Pump PU7 closed because cannot deliver head at 0:00:00 hrs.
  WARNING: Pump PU8 closed because cannot deliver head at 0:00:00 hrs.
  WARNING: Pump PU9 closed because cannot deliver head at 0:00:00 hrs.
  WARNING: Pump PU11 closed because cannot deliver head at 0:00:00 hrs.
   
  WARNING: Pump PU7 closed because cannot deliver head at 0:00:00 hrs.
  WARNING: Pump PU8 closed because cannot deliver head at 0:00:00 hrs.
  WARNING: Pump PU9 closed because cannot deliver head at 0:00:00 hrs.
  WARNING: Pump PU11 closed because cannot deliver head at 0:00:00 hrs.
   
  WARNING: Pump PU7 closed because cannot deliver head at 0:00:00 hrs.
   
  WARNING: Pump PU7 closed because cannot deliver head at 0:00:00 hrs.
  WARNING: Pump PU8 closed because cannot deliver head at 0:00:00 hrs.
  WARNING: Pump PU9 closed because cannot deliver head at 0:00:00 hrs.
  WARNING: Pump PU11 closed because cannot deliver head at 0:00:00 hrs.
   
  WARNING: Pump PU7 closed because cannot deliver head at 0:00:00 hrs.
  WARNING: Pump PU8 closed because cannot deliver head at 0:00:00 hrs.
  WARNING: Pump PU9 closed because cannot deliver head at 0:00:00 hrs.
  WARNING: Pump PU11 closed because cannot deliver head at 0:00:00 hrs.
   
  WARNING: Pump PU7 closed because cannot deliver head at 0:00:00 hrs.
  WARNING: Pump PU8 closed because cannot deliver head at 0:00:00 hrs.
  WARNING: Pump PU9 closed because cannot deliver head at 0:00:00 hrs.
  WARNING: Pump PU11 closed because cannot deliver head at 0:00:00 hrs.
   
  WARNING: Pump PU7 closed because cannot deliver head at 0:00:00 hrs.
   
  WARNING: Pump PU7 closed because cannot deliver head at 0:00:00 hrs.
  WARNING: Pump PU8 closed because cannot deliver head at 0:00:00 hrs.
  WARNING: Pump PU9 closed because cannot deliver head at 0:00:00 hrs.
  WARNING: Pump PU11 closed because cannot deliver head at 0:00:00 hrs.
   
  WARNING: Pump PU8 closed because cannot deliver head at 0:00:00 hrs.
  WARNING: Pump PU9 closed because cannot deliver head at 0:00:00 hrs.
  WARNING: Pump PU11 closed because cannot deliver head at 0:00:00 hrs.
   
  WARNING: Pump PU8 closed because cannot deliver head at 0:00:00 hrs.
  WARNING: Pump PU9 closed because cannot deliver head at 0:00:00 hrs.
  WARNING: Pump PU11 closed because cannot deliver head at 0:00:00 hrs.
   
  WARNING: Pump PU8 closed because cannot deliver head at 0:00:00 hrs.
  WARNING: Pump PU9 closed because cannot deliver head at 0:00:00 hrs.
  WARNING: Pump PU11 closed because cannot deliver head at 0:00:00 hrs.
   
  WARNING: Pump PU8 closed because cannot deliver head at 0:00:00 hrs.
  WARNING: Pump PU9 closed because cannot deliver head at 0:00:00 hrs.
  WARNING: Pump PU11 closed because cannot deliver head at 0:00:00 hrs.
   
  WARNING: Pump PU8 closed because cannot deliver head at 0:00:00 hrs.
  WARNING: Pump PU9 closed because cannot deliver head at 0:00:00 hrs.
  WARNING: Pump PU11 closed because cannot deliver head at 0:00:00 hrs.
   
  WARNING: Pump PU7 closed because cannot deliver head at 0:00:00 hrs.
   
  WARNING: Pump PU8 closed because cannot deliver head at 0:00:00 hrs.
  WARNING: Pump PU9 closed because cannot deliver head at 0:00:00 hrs.
  WARNING: Pump PU11 closed because cannot deliver head at 0:00:00 hrs.
   
  WARNING: Pump PU7 closed because cannot deliver head at 0:00:00 hrs.
   
  WARNING: Pump PU8 closed because cannot deliver head at 0:00:00 hrs.
  WARNING: Pump PU9 closed because cannot deliver head at 0:00:00 hrs.
  WARNING: Pump PU11 closed because cannot deliver head at 0:00:00 hrs.
   
  WARNING: Pump PU7 closed because cannot deliver head at 0:00:00 hrs.
   
  WARNING: Pump PU7 closed because cannot deliver head at 0:00:00 hrs.
  WARNING: Pump PU8 closed because cannot deliver head at 0:00:00 hrs.
  WARNING: Pump PU9 closed because cannot deliver head at 0:00:00 hrs.
  WARNING: Pump PU11 closed because cannot deliver head at 0:00:00 hrs.
   
  WARNING: Pump PU8 closed because cannot deliver head at 0:00:00 hrs.
  WARNING: Pump PU9 closed because cannot deliver head at 0:00:00 hrs.
  WARNING: Pump PU11 closed because cannot deliver head at 0:00:00 hrs.
   
  WARNING: Pump PU7 closed because cannot deliver head at 0:00:00 hrs.
   
  WARNING: Pump PU7 closed because cannot deliver head at 0:00:00 hrs.
  WARNING: Pump PU8 closed because cannot deliver head at 0:00:00 hrs.
  WARNING: Pump PU9 closed because cannot deliver head at 0:00:00 hrs.
  WARNING: Pump PU11 closed because cannot deliver head at 0:00:00 hrs.
   
  WARNING: Pump PU7 closed because cannot deliver head at 0:00:00 hrs.
   
  WARNING: Pump PU7 closed because cannot deliver head at 0:00:00 hrs.
  WARNING: Pump PU8 closed because cannot deliver head at 0:00:00 hrs.
  WARNING: Pump PU9 closed because cannot deliver head at 0:00:00 hrs.
  WARNING: Pump PU11 closed because cannot deliver head at 0:00:00 hrs.
   
  WARNING: Pump PU8 closed because cannot deliver head at 0:00:00 hrs.
  WARNING: Pump PU9 closed because cannot deliver head at 0:00:00 hrs.
  WARNING: Pump PU11 closed because cannot deliver head at 0:00:00 hrs.
   
  WARNING: Pump PU7 closed because cannot deliver head at 0:00:00 hrs.
  WARNING: Pump PU8 closed because cannot deliver head at 0:00:00 hrs.
  WARNING: Pump PU9 closed because cannot deliver head at 0:00:00 hrs.
  WARNING: Pump PU11 closed because cannot deliver head at 0:00:00 hrs.
   
  WARNING: Pump PU8 closed because cannot deliver head at 0:00:00 hrs.
  WARNING: Pump PU9 closed because cannot deliver head at 0:00:00 hrs.
  WARNING: Pump PU11 closed because cannot deliver head at 0:00:00 hrs.
   
  WARNING: Pump PU7 closed because cannot deliver head at 0:00:00 hrs.
   
  WARNING: Pump PU8 closed because cannot deliver head at 0:00:00 hrs.
  WARNING: Pump PU9 closed because cannot deliver head at 0:00:00 hrs.
  WARNING: Pump PU11 closed because cannot deliver head at 0:00:00 hrs.
   
  WARNING: Pump PU7 closed because cannot deliver head at 0:00:00 hrs.
   
  WARNING: Pump PU7 closed because cannot deliver head at 0:00:00 hrs.
   
  WARNING: Pump PU8 closed because cannot deliver head at 0:00:00 hrs.
  WARNING: Pump PU9 closed because cannot deliver head at 0:00:00 hrs.
  WARNING: Pump PU11 closed because cannot deliver head at 0:00:00 hrs.
   
  WARNING: Pump PU7 closed because cannot deliver head at 0:00:00 hrs.
  WARNING: Pump PU8 closed because cannot deliver head at 0:00:00 hrs.
  WARNING: Pump PU9 closed because cannot deliver head at 0:00:00 hrs.
  WARNING: Pump PU11 closed because cannot deliver head at 0:00:00 hrs.
   
  WARNING: Pump PU7 closed because cannot deliver head at 0:00:00 hrs.
   
  WARNING: Pump PU8 closed because cannot deliver head at 0:00:00 hrs.
  WARNING: Pump PU9 closed because cannot deliver head at 0:00:00 hrs.
  WARNING: Pump PU11 closed because cannot deliver head at 0:00:00 hrs.
   
  WARNING: Pump PU8 closed because cannot deliver head at 0:00:00 hrs.
  WARNING: Pump PU9 closed because cannot deliver head at 0:00:00 hrs.
  WARNING: Pump PU11 closed because cannot deliver head at 0:00:00 hrs.
   
  WARNING: Pump PU7 closed because cannot deliver head at 0:00:00 hrs.
   
  WARNING: Pump PU7 closed because cannot deliver head at 0:00:00 hrs.
  WARNING: Pump PU8 closed because cannot deliver head at 0:00:00 hrs.
  WARNING: Pump PU9 closed because cannot deliver head at 0:00:00 hrs.
  WARNING: Pump PU11 closed because cannot deliver head at 0:00:00 hrs.
   
  WARNING: Pump PU7 closed because cannot deliver head at 0:00:00 hrs.
  WARNING: Pump PU8 closed because cannot deliver head at 0:00:00 hrs.
  WARNING: Pump PU9 closed because cannot deliver head at 0:00:00 hrs.
  WARNING: Pump PU11 closed because cannot deliver head at 0:00:00 hrs.
   
  WARNING: Pump PU7 closed because cannot deliver head at 0:00:00 hrs.
  WARNING: Pump PU8 closed because cannot deliver head at 0:00:00 hrs.
  WARNING: Pump PU9 closed because cannot deliver head at 0:00:00 hrs.
  WARNING: Pump PU11 closed because cannot deliver head at 0:00:00 hrs.
   
  WARNING: Pump PU7 closed because cannot deliver head at 0:00:00 hrs.
   
  WARNING: Pump PU7 closed because cannot deliver head at 0:00:00 hrs.
   
  WARNING: Pump PU7 closed because cannot deliver head at 0:00:00 hrs.
   
  WARNING: Pump PU8 closed because cannot deliver head at 0:00:00 hrs.
  WARNING: Pump PU9 closed because cannot deliver head at 0:00:00 hrs.
  WARNING: Pump PU11 closed because cannot deliver head at 0:00:00 hrs.
   
  WARNING: Pump PU7 closed because cannot deliver head at 0:00:00 hrs.
   
  WARNING: Pump PU7 closed because cannot deliver head at 0:00:00 hrs.
   
  WARNING: Pump PU7 closed because cannot deliver head at 0:00:00 hrs.
  WARNING: Pump PU8 closed because cannot deliver head at 0:00:00 hrs.
  WARNING: Pump PU9 closed because cannot deliver head at 0:00:00 hrs.
  WARNING: Pump PU11 closed because cannot deliver head at 0:00:00 hrs.
   
  WARNING: Pump PU7 closed because cannot deliver head at 0:00:00 hrs.
  WARNING: Pump PU8 closed because cannot deliver head at 0:00:00 hrs.
  WARNING: Pump PU9 closed because cannot deliver head at 0:00:00 hrs.
  WARNING: Pump PU11 closed because cannot deliver head at 0:00:00 hrs.
   
  WARNING: Pump PU8 closed because cannot deliver head at 0:00:00 hrs.
  WARNING: Pump PU9 closed because cannot deliver head at 0:00:00 hrs.
  WARNING: Pump PU11 closed because cannot deliver head at 0:00:00 hrs.
   
  WARNING: Pump PU8 closed because cannot deliver head at 0:00:00 hrs.
  WARNING: Pump PU9 closed because cannot deliver head at 0:00:00 hrs.
  WARNING: Pump PU11 closed because cannot deliver head at 0:00:00 hrs.
   
  WARNING: Pump PU8 closed because cannot deliver head at 0:00:00 hrs.
  WARNING: Pump PU9 closed because cannot deliver head at 0:00:00 hrs.
  WARNING: Pump PU11 closed because cannot deliver head at 0:00:00 hrs.
   
  WARNING: Pump PU8 closed because cannot deliver head at 0:00:00 hrs.
  WARNING: Pump PU9 closed because cannot deliver head at 0:00:00 hrs.
  WARNING: Pump PU11 closed because cannot deliver head at 0:00:00 hrs.
   
  WARNING: Pump PU8 closed because cannot deliver head at 0:00:00 hrs.
  WARNING: Pump PU9 closed because cannot deliver head at 0:00:00 hrs.
  WARNING: Pump PU11 closed because cannot deliver head at 0:00:00 hrs.
   
  WARNING: Pump PU7 closed because cannot deliver head at 0:00:00 hrs.
  WARNING: Pump PU8 closed because cannot deliver head at 0:00:00 hrs.
  WARNING: Pump PU9 closed because cannot deliver head at 0:00:00 hrs.
  WARNING: Pump PU11 closed because cannot deliver head at 0:00:00 hrs.
   
  WARNING: Pump PU7 closed because cannot deliver head at 0:00:00 hrs.
  WARNING: Pump PU8 closed because cannot deliver head at 0:00:00 hrs.
  WARNING: Pump PU9 closed because cannot deliver head at 0:00:00 hrs.
  WARNING: Pump PU11 closed because cannot deliver head at 0:00:00 hrs.
   
  WARNING: Pump PU7 closed because cannot deliver head at 0:00:00 hrs.
   
  WARNING: Pump PU8 closed because cannot deliver head at 0:00:00 hrs.
  WARNING: Pump PU9 closed because cannot deliver head at 0:00:00 hrs.
  WARNING: Pump PU11 closed because cannot deliver head at 0:00:00 hrs.
   
  WARNING: Pump PU8 closed because cannot deliver head at 0:00:00 hrs.
  WARNING: Pump PU9 closed because cannot deliver head at 0:00:00 hrs.
  WARNING: Pump PU11 closed because cannot deliver head at 0:00:00 hrs.
   
  WARNING: Pump PU8 closed because cannot deliver head at 0:00:00 hrs.
  WARNING: Pump PU9 closed because cannot deliver head at 0:00:00 hrs.
  WARNING: Pump PU11 closed because cannot deliver head at 0:00:00 hrs.
   
  WARNING: Pump PU7 closed because cannot deliver head at 0:00:00 hrs.
  WARNING: Pump PU8 closed because cannot deliver head at 0:00:00 hrs.
  WARNING: Pump PU9 closed because cannot deliver head at 0:00:00 hrs.
  WARNING: Pump PU11 closed because cannot deliver head at 0:00:00 hrs.
   
  WARNING: Pump PU7 closed because cannot deliver head at 0:00:00 hrs.
  WARNING: Pump PU8 closed because cannot deliver head at 0:00:00 hrs.
  WARNING: Pump PU9 closed because cannot deliver head at 0:00:00 hrs.
  WARNING: Pump PU11 closed because cannot deliver head at 0:00:00 hrs.
   
  WARNING: Pump PU8 closed because cannot deliver head at 0:00:00 hrs.
  WARNING: Pump PU9 closed because cannot deliver head at 0:00:00 hrs.
  WARNING: Pump PU11 closed because cannot deliver head at 0:00:00 hrs.
   
  WARNING: Pump PU8 closed because cannot deliver head at 0:00:00 hrs.
  WARNING: Pump PU9 closed because cannot deliver head at 0:00:00 hrs.
  WARNING: Pump PU11 closed because cannot deliver head at 0:00:00 hrs.
   
  WARNING: Pump PU7 closed because cannot deliver head at 0:00:00 hrs.
   
  WARNING: Pump PU8 closed because cannot deliver head at 0:00:00 hrs.
  WARNING: Pump PU9 closed because cannot deliver head at 0:00:00 hrs.
  WARNING: Pump PU11 closed because cannot deliver head at 0:00:00 hrs.
   
  WARNING: Pump PU7 closed because cannot deliver head at 0:00:00 hrs.
  WARNING: Pump PU8 closed because cannot deliver head at 0:00:00 hrs.
  WARNING: Pump PU9 closed because cannot deliver head at 0:00:00 hrs.
  WARNING: Pump PU11 closed because cannot deliver head at 0:00:00 hrs.
   
  WARNING: Pump PU8 closed because cannot deliver head at 0:00:00 hrs.
  WARNING: Pump PU9 closed because cannot deliver head at 0:00:00 hrs.
  WARNING: Pump PU11 closed because cannot deliver head at 0:00:00 hrs.
   
  WARNING: Pump PU8 closed because cannot deliver head at 0:00:00 hrs.
  WARNING: Pump PU9 closed because cannot deliver head at 0:00:00 hrs.
  WARNING: Pump PU11 closed because cannot deliver head at 0:00:00 hrs.
   
  WARNING: Pump PU8 closed because cannot deliver head at 0:00:00 hrs.
  WARNING: Pump PU9 closed because cannot deliver head at 0:00:00 hrs.
  WARNING: Pump PU11 closed because cannot deliver head at 0:00:00 hrs.
   
  WARNING: Pump PU8 closed because cannot deliver head at 0:00:00 hrs.
  WARNING: Pump PU9 closed because cannot deliver head at 0:00:00 hrs.
  WARNING: Pump PU11 closed because cannot deliver head at 0:00:00 hrs.
   
  WARNING: Pump PU7 closed because cannot deliver head at 0:00:00 hrs.
  WARNING: Pump PU8 closed because cannot deliver head at 0:00:00 hrs.
  WARNING: Pump PU9 closed because cannot deliver head at 0:00:00 hrs.
  WARNING: Pump PU11 closed because cannot deliver head at 0:00:00 hrs.
   
  WARNING: Pump PU7 closed because cannot deliver head at 0:00:00 hrs.
   
  WARNING: Pump PU8 closed because cannot deliver head at 0:00:00 hrs.
  WARNING: Pump PU9 closed because cannot deliver head at 0:00:00 hrs.
  WARNING: Pump PU11 closed because cannot deliver head at 0:00:00 hrs.
   
  WARNING: Pump PU7 closed because cannot deliver head at 0:00:00 hrs.
  WARNING: Pump PU8 closed because cannot deliver head at 0:00:00 hrs.
  WARNING: Pump PU9 closed because cannot deliver head at 0:00:00 hrs.
  WARNING: Pump PU11 closed because cannot deliver head at 0:00:00 hrs.
   
  WARNING: Pump PU7 closed because cannot deliver head at 0:00:00 hrs.
   
  WARNING: Pump PU8 closed because cannot deliver head at 0:00:00 hrs.
  WARNING: Pump PU9 closed because cannot deliver head at 0:00:00 hrs.
  WARNING: Pump PU11 closed because cannot deliver head at 0:00:00 hrs.
   
  WARNING: Pump PU7 closed because cannot deliver head at 0:00:00 hrs.
   
  WARNING: Pump PU7 closed because cannot deliver head at 0:00:00 hrs.
   
  WARNING: Pump PU7 closed because cannot deliver head at 0:00:00 hrs.
  WARNING: Pump PU8 closed because cannot deliver head at 0:00:00 hrs.
  WARNING: Pump PU9 closed because cannot deliver head at 0:00:00 hrs.
  WARNING: Pump PU11 closed because cannot deliver head at 0:00:00 hrs.
   
  WARNING: Pump PU7 closed because cannot deliver head at 0:00:00 hrs.
  WARNING: Pump PU8 closed because cannot deliver head at 0:00:00 hrs.
  WARNING: Pump PU9 closed because cannot deliver head at 0:00:00 hrs.
  WARNING: Pump PU11 closed because cannot deliver head at 0:00:00 hrs.
   
  WARNING: Pump PU8 closed because cannot deliver head at 0:00:00 hrs.
  WARNING: Pump PU9 closed because cannot deliver head at 0:00:00 hrs.
  WARNING: Pump PU11 closed because cannot deliver head at 0:00:00 hrs.
   
  WARNING: Pump PU7 closed because cannot deliver head at 0:00:00 hrs.
   
  WARNING: Pump PU8 closed because cannot deliver head at 0:00:00 hrs.
  WARNING: Pump PU9 closed because cannot deliver head at 0:00:00 hrs.
  WARNING: Pump PU11 closed because cannot deliver head at 0:00:00 hrs.
   
  WARNING: Pump PU7 closed because cannot deliver head at 0:00:00 hrs.
  WARNING: Pump PU8 closed because cannot deliver head at 0:00:00 hrs.
  WARNING: Pump PU9 closed because cannot deliver head at 0:00:00 hrs.
  WARNING: Pump PU11 closed because cannot deliver head at 0:00:00 hrs.
   
  WARNING: Pump PU7 closed because cannot deliver head at 0:00:00 hrs.
   
  WARNING: Pump PU8 closed because cannot deliver head at 0:00:00 hrs.
  WARNING: Pump PU9 closed because cannot deliver head at 0:00:00 hrs.
  WARNING: Pump PU11 closed because cannot deliver head at 0:00:00 hrs.
   
  WARNING: Pump PU8 closed because cannot deliver head at 0:00:00 hrs.
  WARNING: Pump PU9 closed because cannot deliver head at 0:00:00 hrs.
  WARNING: Pump PU11 closed because cannot deliver head at 0:00:00 hrs.
   
  WARNING: Pump PU7 closed because cannot deliver head at 0:00:00 hrs.
   
  WARNING: Pump PU8 closed because cannot deliver head at 0:00:00 hrs.
  WARNING: Pump PU9 closed because cannot deliver head at 0:00:00 hrs.
  WARNING: Pump PU11 closed because cannot deliver head at 0:00:00 hrs.
   
  WARNING: Pump PU7 closed because cannot deliver head at 0:00:00 hrs.
  WARNING: Pump PU8 closed because cannot deliver head at 0:00:00 hrs.
  WARNING: Pump PU9 closed because cannot deliver head at 0:00:00 hrs.
  WARNING: Pump PU11 closed because cannot deliver head at 0:00:00 hrs.
   
  WARNING: Pump PU7 closed because cannot deliver head at 0:00:00 hrs.
  WARNING: Pump PU8 closed because cannot deliver head at 0:00:00 hrs.
  WARNING: Pump PU9 closed because cannot deliver head at 0:00:00 hrs.
  WARNING: Pump PU11 closed because cannot deliver head at 0:00:00 hrs.
   
  WARNING: Pump PU7 closed because cannot deliver head at 0:00:00 hrs.
   
  WARNING: Pump PU8 closed because cannot deliver head at 0:00:00 hrs.
  WARNING: Pump PU9 closed because cannot deliver head at 0:00:00 hrs.
  WARNING: Pump PU11 closed because cannot deliver head at 0:00:00 hrs.
   
  WARNING: Pump PU7 closed because cannot deliver head at 0:00:00 hrs.
  WARNING: Pump PU8 closed because cannot deliver head at 0:00:00 hrs.
  WARNING: Pump PU9 closed because cannot deliver head at 0:00:00 hrs.
  WARNING: Pump PU11 closed because cannot deliver head at 0:00:00 hrs.
   
  WARNING: Pump PU7 closed because cannot deliver head at 0:00:00 hrs.
  WARNING: Pump PU8 closed because cannot deliver head at 0:00:00 hrs.
  WARNING: Pump PU9 closed because cannot deliver head at 0:00:00 hrs.
  WARNING: Pump PU11 closed because cannot deliver head at 0:00:00 hrs.
   
  WARNING: Pump PU8 closed because cannot deliver head at 0:00:00 hrs.
  WARNING: Pump PU9 closed because cannot deliver head at 0:00:00 hrs.
  WARNING: Pump PU11 closed because cannot deliver head at 0:00:00 hrs.
   
  WARNING: Pump PU7 closed because cannot deliver head at 0:00:00 hrs.
   
  WARNING: Pump PU8 closed because cannot deliver head at 0:00:00 hrs.
  WARNING: Pump PU9 closed because cannot deliver head at 0:00:00 hrs.
  WARNING: Pump PU11 closed because cannot deliver head at 0:00:00 hrs.
   
  WARNING: Pump PU8 closed because cannot deliver head at 0:00:00 hrs.
  WARNING: Pump PU9 closed because cannot deliver head at 0:00:00 hrs.
  WARNING: Pump PU11 closed because cannot deliver head at 0:00:00 hrs.
   
  WARNING: Pump PU7 closed because cannot deliver head at 0:00:00 hrs.
   
  WARNING: Pump PU8 closed because cannot deliver head at 0:00:00 hrs.
  WARNING: Pump PU9 closed because cannot deliver head at 0:00:00 hrs.
  WARNING: Pump PU11 closed because cannot deliver head at 0:00:00 hrs.
   
  WARNING: Pump PU7 closed because cannot deliver head at 0:00:00 hrs.
  WARNING: Pump PU8 closed because cannot deliver head at 0:00:00 hrs.
  WARNING: Pump PU9 closed because cannot deliver head at 0:00:00 hrs.
  WARNING: Pump PU11 closed because cannot deliver head at 0:00:00 hrs.
   
  WARNING: Pump PU8 closed because cannot deliver head at 0:00:00 hrs.
  WARNING: Pump PU9 closed because cannot deliver head at 0:00:00 hrs.
  WARNING: Pump PU11 closed because cannot deliver head at 0:00:00 hrs.
   
  WARNING: Pump PU7 closed because cannot deliver head at 0:00:00 hrs.
   
  WARNING: Pump PU8 closed because cannot deliver head at 0:00:00 hrs.
  WARNING: Pump PU9 closed because cannot deliver head at 0:00:00 hrs.
  WARNING: Pump PU11 closed because cannot deliver head at 0:00:00 hrs.
   
  WARNING: Pump PU8 closed because cannot deliver head at 0:00:00 hrs.
  WARNING: Pump PU9 closed because cannot deliver head at 0:00:00 hrs.
  WARNING: Pump PU11 closed because cannot deliver head at 0:00:00 hrs.
   
  WARNING: Pump PU8 closed because cannot deliver head at 0:00:00 hrs.
  WARNING: Pump PU9 closed because cannot deliver head at 0:00:00 hrs.
  WARNING: Pump PU11 closed because cannot deliver head at 0:00:00 hrs.
   
  WARNING: Pump PU7 closed because cannot deliver head at 0:00:00 hrs.
   
  WARNING: Pump PU7 closed because cannot deliver head at 0:00:00 hrs.
  WARNING: Pump PU8 closed because cannot deliver head at 0:00:00 hrs.
  WARNING: Pump PU9 closed because cannot deliver head at 0:00:00 hrs.
  WARNING: Pump PU11 closed because cannot deliver head at 0:00:00 hrs.
   
  WARNING: Pump PU7 closed because cannot deliver head at 0:00:00 hrs.
   
  WARNING: Pump PU8 closed because cannot deliver head at 0:00:00 hrs.
  WARNING: Pump PU9 closed because cannot deliver head at 0:00:00 hrs.
  WARNING: Pump PU11 closed because cannot deliver head at 0:00:00 hrs.
   
  WARNING: Pump PU7 closed because cannot deliver head at 0:00:00 hrs.
  WARNING: Pump PU8 closed because cannot deliver head at 0:00:00 hrs.
  WARNING: Pump PU9 closed because cannot deliver head at 0:00:00 hrs.
  WARNING: Pump PU11 closed because cannot deliver head at 0:00:00 hrs.
   
  WARNING: Pump PU7 closed because cannot deliver head at 0:00:00 hrs.
  WARNING: Pump PU8 closed because cannot deliver head at 0:00:00 hrs.
  WARNING: Pump PU9 closed because cannot deliver head at 0:00:00 hrs.
  WARNING: Pump PU11 closed because cannot deliver head at 0:00:00 hrs.
   
  WARNING: Pump PU7 closed because cannot deliver head at 0:00:00 hrs.
  WARNING: Pump PU8 closed because cannot deliver head at 0:00:00 hrs.
  WARNING: Pump PU9 closed because cannot deliver head at 0:00:00 hrs.
  WARNING: Pump PU11 closed because cannot deliver head at 0:00:00 hrs.
   
  WARNING: Pump PU8 closed because cannot deliver head at 0:00:00 hrs.
  WARNING: Pump PU9 closed because cannot deliver head at 0:00:00 hrs.
  WARNING: Pump PU11 closed because cannot deliver head at 0:00:00 hrs.
   
  WARNING: Pump PU7 closed because cannot deliver head at 0:00:00 hrs.
   
  WARNING: Pump PU7 closed because cannot deliver head at 0:00:00 hrs.
   
  WARNING: Pump PU7 closed because cannot deliver head at 0:00:00 hrs.
   
  WARNING: Pump PU7 closed because cannot deliver head at 0:00:00 hrs.
   
  WARNING: Pump PU8 closed because cannot deliver head at 0:00:00 hrs.
  WARNING: Pump PU9 closed because cannot deliver head at 0:00:00 hrs.
  WARNING: Pump PU11 closed because cannot deliver head at 0:00:00 hrs.
   
  WARNING: Pump PU7 closed because cannot deliver head at 0:00:00 hrs.
  WARNING: Pump PU8 closed because cannot deliver head at 0:00:00 hrs.
  WARNING: Pump PU9 closed because cannot deliver head at 0:00:00 hrs.
  WARNING: Pump PU11 closed because cannot deliver head at 0:00:00 hrs.
   
  WARNING: Pump PU7 closed because cannot deliver head at 0:00:00 hrs.
   
  WARNING: Pump PU7 closed because cannot deliver head at 0:00:00 hrs.
  WARNING: Pump PU8 closed because cannot deliver head at 0:00:00 hrs.
  WARNING: Pump PU9 closed because cannot deliver head at 0:00:00 hrs.
  WARNING: Pump PU11 closed because cannot deliver head at 0:00:00 hrs.
   
  WARNING: Pump PU7 closed because cannot deliver head at 0:00:00 hrs.
  WARNING: Pump PU8 closed because cannot deliver head at 0:00:00 hrs.
  WARNING: Pump PU9 closed because cannot deliver head at 0:00:00 hrs.
  WARNING: Pump PU11 closed because cannot deliver head at 0:00:00 hrs.
   
  WARNING: Pump PU7 closed because cannot deliver head at 0:00:00 hrs.
  WARNING: Pump PU8 closed because cannot deliver head at 0:00:00 hrs.
  WARNING: Pump PU9 closed because cannot deliver head at 0:00:00 hrs.
  WARNING: Pump PU11 closed because cannot deliver head at 0:00:00 hrs.
   
  WARNING: Pump PU7 closed because cannot deliver head at 0:00:00 hrs.
   
  WARNING: Pump PU7 closed because cannot deliver head at 0:00:00 hrs.
  WARNING: Pump PU8 closed because cannot deliver head at 0:00:00 hrs.
  WARNING: Pump PU9 closed because cannot deliver head at 0:00:00 hrs.
  WARNING: Pump PU11 closed because cannot deliver head at 0:00:00 hrs.
   
  WARNING: Pump PU8 closed because cannot deliver head at 0:00:00 hrs.
  WARNING: Pump PU9 closed because cannot deliver head at 0:00:00 hrs.
  WARNING: Pump PU11 closed because cannot deliver head at 0:00:00 hrs.
   
  WARNING: Pump PU8 closed because cannot deliver head at 0:00:00 hrs.
  WARNING: Pump PU9 closed because cannot deliver head at 0:00:00 hrs.
  WARNING: Pump PU11 closed because cannot deliver head at 0:00:00 hrs.
   
  WARNING: Pump PU7 closed because cannot deliver head at 0:00:00 hrs.
  WARNING: Pump PU8 closed because cannot deliver head at 0:00:00 hrs.
  WARNING: Pump PU9 closed because cannot deliver head at 0:00:00 hrs.
  WARNING: Pump PU11 closed because cannot deliver head at 0:00:00 hrs.
   
  WARNING: Pump PU7 closed because cannot deliver head at 0:00:00 hrs.
   
  WARNING: Pump PU7 closed because cannot deliver head at 0:00:00 hrs.
   
  WARNING: Pump PU7 closed because cannot deliver head at 0:00:00 hrs.
  WARNING: Pump PU8 closed because cannot deliver head at 0:00:00 hrs.
  WARNING: Pump PU9 closed because cannot deliver head at 0:00:00 hrs.
  WARNING: Pump PU11 closed because cannot deliver head at 0:00:00 hrs.
   
  WARNING: Pump PU8 closed because cannot deliver head at 0:00:00 hrs.
  WARNING: Pump PU9 closed because cannot deliver head at 0:00:00 hrs.
  WARNING: Pump PU11 closed because cannot deliver head at 0:00:00 hrs.
   
  WARNING: Pump PU7 closed because cannot deliver head at 0:00:00 hrs.
   
  WARNING: Pump PU8 closed because cannot deliver head at 0:00:00 hrs.
  WARNING: Pump PU9 closed because cannot deliver head at 0:00:00 hrs.
  WARNING: Pump PU11 closed because cannot deliver head at 0:00:00 hrs.
   
  WARNING: Pump PU8 closed because cannot deliver head at 0:00:00 hrs.
  WARNING: Pump PU9 closed because cannot deliver head at 0:00:00 hrs.
  WARNING: Pump PU11 closed because cannot deliver head at 0:00:00 hrs.
   
  WARNING: Pump PU7 closed because cannot deliver head at 0:00:00 hrs.
   
  WARNING: Pump PU7 closed because cannot deliver head at 0:00:00 hrs.
  WARNING: Pump PU8 closed because cannot deliver head at 0:00:00 hrs.
  WARNING: Pump PU9 closed because cannot deliver head at 0:00:00 hrs.
  WARNING: Pump PU11 closed because cannot deliver head at 0:00:00 hrs.
   
  WARNING: Pump PU7 closed because cannot deliver head at 0:00:00 hrs.
   
  WARNING: Pump PU8 closed because cannot deliver head at 0:00:00 hrs.
  WARNING: Pump PU9 closed because cannot deliver head at 0:00:00 hrs.
  WARNING: Pump PU11 closed because cannot deliver head at 0:00:00 hrs.
   
  WARNING: Pump PU7 closed because cannot deliver head at 0:00:00 hrs.
  WARNING: Pump PU8 closed because cannot deliver head at 0:00:00 hrs.
  WARNING: Pump PU9 closed because cannot deliver head at 0:00:00 hrs.
  WARNING: Pump PU11 closed because cannot deliver head at 0:00:00 hrs.
   
  WARNING: Pump PU8 closed because cannot deliver head at 0:00:00 hrs.
  WARNING: Pump PU9 closed because cannot deliver head at 0:00:00 hrs.
  WARNING: Pump PU11 closed because cannot deliver head at 0:00:00 hrs.
   
  WARNING: Pump PU7 closed because cannot deliver head at 0:00:00 hrs.
   
  WARNING: Pump PU7 closed because cannot deliver head at 0:00:00 hrs.
   
  WARNING: Pump PU7 closed because cannot deliver head at 0:00:00 hrs.
  WARNING: Pump PU8 closed because cannot deliver head at 0:00:00 hrs.
  WARNING: Pump PU9 closed because cannot deliver head at 0:00:00 hrs.
  WARNING: Pump PU11 closed because cannot deliver head at 0:00:00 hrs.
   
  WARNING: Pump PU7 closed because cannot deliver head at 0:00:00 hrs.
   
  WARNING: Pump PU7 closed because cannot deliver head at 0:00:00 hrs.
   
  WARNING: Pump PU8 closed because cannot deliver head at 0:00:00 hrs.
  WARNING: Pump PU9 closed because cannot deliver head at 0:00:00 hrs.
  WARNING: Pump PU11 closed because cannot deliver head at 0:00:00 hrs.
   
  WARNING: Pump PU7 closed because cannot deliver head at 0:00:00 hrs.
   
  WARNING: Pump PU7 closed because cannot deliver head at 0:00:00 hrs.
  WARNING: Pump PU8 closed because cannot deliver head at 0:00:00 hrs.
  WARNING: Pump PU9 closed because cannot deliver head at 0:00:00 hrs.
  WARNING: Pump PU11 closed because cannot deliver head at 0:00:00 hrs.
   
  WARNING: Pump PU7 closed because cannot deliver head at 0:00:00 hrs.
  WARNING: Pump PU8 closed because cannot deliver head at 0:00:00 hrs.
  WARNING: Pump PU9 closed because cannot deliver head at 0:00:00 hrs.
  WARNING: Pump PU11 closed because cannot deliver head at 0:00:00 hrs.
   
  WARNING: Pump PU7 closed because cannot deliver head at 0:00:00 hrs.
   
  WARNING: Pump PU8 closed because cannot deliver head at 0:00:00 hrs.
  WARNING: Pump PU9 closed because cannot deliver head at 0:00:00 hrs.
  WARNING: Pump PU11 closed because cannot deliver head at 0:00:00 hrs.
   
  WARNING: Pump PU8 closed because cannot deliver head at 0:00:00 hrs.
  WARNING: Pump PU9 closed because cannot deliver head at 0:00:00 hrs.
  WARNING: Pump PU11 closed because cannot deliver head at 0:00:00 hrs.
   
  WARNING: Pump PU8 closed because cannot deliver head at 0:00:00 hrs.
  WARNING: Pump PU9 closed because cannot deliver head at 0:00:00 hrs.
  WARNING: Pump PU11 closed because cannot deliver head at 0:00:00 hrs.
   
  WARNING: Pump PU7 closed because cannot deliver head at 0:00:00 hrs.
  WARNING: Pump PU8 closed because cannot deliver head at 0:00:00 hrs.
  WARNING: Pump PU9 closed because cannot deliver head at 0:00:00 hrs.
  WARNING: Pump PU11 closed because cannot deliver head at 0:00:00 hrs.
   
  WARNING: Pump PU8 closed because cannot deliver head at 0:00:00 hrs.
  WARNING: Pump PU9 closed because cannot deliver head at 0:00:00 hrs.
  WARNING: Pump PU11 closed because cannot deliver head at 0:00:00 hrs.
   
  WARNING: Pump PU7 closed because cannot deliver head at 0:00:00 hrs.
   
  WARNING: Pump PU8 closed because cannot deliver head at 0:00:00 hrs.
  WARNING: Pump PU9 closed because cannot deliver head at 0:00:00 hrs.
  WARNING: Pump PU11 closed because cannot deliver head at 0:00:00 hrs.
   
  WARNING: Pump PU8 closed because cannot deliver head at 0:00:00 hrs.
  WARNING: Pump PU9 closed because cannot deliver head at 0:00:00 hrs.
  WARNING: Pump PU11 closed because cannot deliver head at 0:00:00 hrs.
   
  WARNING: Pump PU7 closed because cannot deliver head at 0:00:00 hrs.
   
  WARNING: Pump PU7 closed because cannot deliver head at 0:00:00 hrs.
   
  WARNING: Pump PU7 closed because cannot deliver head at 0:00:00 hrs.
  WARNING: Pump PU8 closed because cannot deliver head at 0:00:00 hrs.
  WARNING: Pump PU9 closed because cannot deliver head at 0:00:00 hrs.
  WARNING: Pump PU11 closed because cannot deliver head at 0:00:00 hrs.
   
  WARNING: Pump PU7 closed because cannot deliver head at 0:00:00 hrs.
  WARNING: Pump PU8 closed because cannot deliver head at 0:00:00 hrs.
  WARNING: Pump PU9 closed because cannot deliver head at 0:00:00 hrs.
  WARNING: Pump PU11 closed because cannot deliver head at 0:00:00 hrs.
   
  WARNING: Pump PU7 closed because cannot deliver head at 0:00:00 hrs.
   
  WARNING: Pump PU7 closed because cannot deliver head at 0:00:00 hrs.
  WARNING: Pump PU8 closed because cannot deliver head at 0:00:00 hrs.
  WARNING: Pump PU9 closed because cannot deliver head at 0:00:00 hrs.
  WARNING: Pump PU11 closed because cannot deliver head at 0:00:00 hrs.
   
  WARNING: Pump PU7 closed because cannot deliver head at 0:00:00 hrs.
  WARNING: Pump PU8 closed because cannot deliver head at 0:00:00 hrs.
  WARNING: Pump PU9 closed because cannot deliver head at 0:00:00 hrs.
  WARNING: Pump PU11 closed because cannot deliver head at 0:00:00 hrs.
   
  WARNING: Pump PU7 closed because cannot deliver head at 0:00:00 hrs.
  WARNING: Pump PU8 closed because cannot deliver head at 0:00:00 hrs.
  WARNING: Pump PU9 closed because cannot deliver head at 0:00:00 hrs.
  WARNING: Pump PU11 closed because cannot deliver head at 0:00:00 hrs.
   
  WARNING: Pump PU7 closed because cannot deliver head at 0:00:00 hrs.
   
  WARNING: Pump PU8 closed because cannot deliver head at 0:00:00 hrs.
  WARNING: Pump PU9 closed because cannot deliver head at 0:00:00 hrs.
  WARNING: Pump PU11 closed because cannot deliver head at 0:00:00 hrs.
   
  WARNING: Pump PU8 closed because cannot deliver head at 0:00:00 hrs.
  WARNING: Pump PU9 closed because cannot deliver head at 0:00:00 hrs.
  WARNING: Pump PU11 closed because cannot deliver head at 0:00:00 hrs.
   
  WARNING: Pump PU8 closed because cannot deliver head at 0:00:00 hrs.
  WARNING: Pump PU9 closed because cannot deliver head at 0:00:00 hrs.
  WARNING: Pump PU11 closed because cannot deliver head at 0:00:00 hrs.
   
  WARNING: Pump PU7 closed because cannot deliver head at 0:00:00 hrs.
   
  WARNING: Pump PU7 closed because cannot deliver head at 0:00:00 hrs.
  WARNING: Pump PU8 closed because cannot deliver head at 0:00:00 hrs.
  WARNING: Pump PU9 closed because cannot deliver head at 0:00:00 hrs.
  WARNING: Pump PU11 closed because cannot deliver head at 0:00:00 hrs.
   
  WARNING: Pump PU7 closed because cannot deliver head at 0:00:00 hrs.
  WARNING: Pump PU8 closed because cannot deliver head at 0:00:00 hrs.
  WARNING: Pump PU9 closed because cannot deliver head at 0:00:00 hrs.
  WARNING: Pump PU11 closed because cannot deliver head at 0:00:00 hrs.
   
  WARNING: Pump PU8 closed because cannot deliver head at 0:00:00 hrs.
  WARNING: Pump PU9 closed because cannot deliver head at 0:00:00 hrs.
  WARNING: Pump PU11 closed because cannot deliver head at 0:00:00 hrs.
   
  WARNING: Pump PU8 closed because cannot deliver head at 0:00:00 hrs.
  WARNING: Pump PU9 closed because cannot deliver head at 0:00:00 hrs.
  WARNING: Pump PU11 closed because cannot deliver head at 0:00:00 hrs.
   
  WARNING: Pump PU7 closed because cannot deliver head at 0:00:00 hrs.
  WARNING: Pump PU8 closed because cannot deliver head at 0:00:00 hrs.
  WARNING: Pump PU9 closed because cannot deliver head at 0:00:00 hrs.
  WARNING: Pump PU11 closed because cannot deliver head at 0:00:00 hrs.
   
  WARNING: Pump PU8 closed because cannot deliver head at 0:00:00 hrs.
  WARNING: Pump PU9 closed because cannot deliver head at 0:00:00 hrs.
  WARNING: Pump PU11 closed because cannot deliver head at 0:00:00 hrs.
   
  WARNING: Pump PU7 closed because cannot deliver head at 0:00:00 hrs.
   
  WARNING: Pump PU7 closed because cannot deliver head at 0:00:00 hrs.
   
  WARNING: Pump PU7 closed because cannot deliver head at 0:00:00 hrs.
  WARNING: Pump PU8 closed because cannot deliver head at 0:00:00 hrs.
  WARNING: Pump PU9 closed because cannot deliver head at 0:00:00 hrs.
  WARNING: Pump PU11 closed because cannot deliver head at 0:00:00 hrs.
   
  WARNING: Pump PU7 closed because cannot deliver head at 0:00:00 hrs.
   
  WARNING: Pump PU7 closed because cannot deliver head at 0:00:00 hrs.
   
  WARNING: Pump PU7 closed because cannot deliver head at 0:00:00 hrs.
   
  WARNING: Pump PU7 closed because cannot deliver head at 0:00:00 hrs.
   
  WARNING: Pump PU7 closed because cannot deliver head at 0:00:00 hrs.
   
  WARNING: Pump PU7 closed because cannot deliver head at 0:00:00 hrs.
   
  WARNING: Pump PU8 closed because cannot deliver head at 0:00:00 hrs.
  WARNING: Pump PU9 closed because cannot deliver head at 0:00:00 hrs.
  WARNING: Pump PU11 closed because cannot deliver head at 0:00:00 hrs.
   
  WARNING: Pump PU7 closed because cannot deliver head at 0:00:00 hrs.
  WARNING: Pump PU8 closed because cannot deliver head at 0:00:00 hrs.
  WARNING: Pump PU9 closed because cannot deliver head at 0:00:00 hrs.
  WARNING: Pump PU11 closed because cannot deliver head at 0:00:00 hrs.
   
  WARNING: Pump PU7 closed because cannot deliver head at 0:00:00 hrs.
  WARNING: Pump PU8 closed because cannot deliver head at 0:00:00 hrs.
  WARNING: Pump PU9 closed because cannot deliver head at 0:00:00 hrs.
  WARNING: Pump PU11 closed because cannot deliver head at 0:00:00 hrs.
   
  WARNING: Pump PU7 closed because cannot deliver head at 0:00:00 hrs.
  WARNING: Pump PU8 closed because cannot deliver head at 0:00:00 hrs.
  WARNING: Pump PU9 closed because cannot deliver head at 0:00:00 hrs.
  WARNING: Pump PU11 closed because cannot deliver head at 0:00:00 hrs.
   
  WARNING: Pump PU7 closed because cannot deliver head at 0:00:00 hrs.
   
  WARNING: Pump PU7 closed because cannot deliver head at 0:00:00 hrs.
  WARNING: Pump PU8 closed because cannot deliver head at 0:00:00 hrs.
  WARNING: Pump PU9 closed because cannot deliver head at 0:00:00 hrs.
  WARNING: Pump PU11 closed because cannot deliver head at 0:00:00 hrs.
   
  WARNING: Pump PU8 closed because cannot deliver head at 0:00:00 hrs.
  WARNING: Pump PU9 closed because cannot deliver head at 0:00:00 hrs.
  WARNING: Pump PU11 closed because cannot deliver head at 0:00:00 hrs.
   
  WARNING: Pump PU7 closed because cannot deliver head at 0:00:00 hrs.
  WARNING: Pump PU8 closed because cannot deliver head at 0:00:00 hrs.
  WARNING: Pump PU9 closed because cannot deliver head at 0:00:00 hrs.
  WARNING: Pump PU11 closed because cannot deliver head at 0:00:00 hrs.
   
  WARNING: Pump PU8 closed because cannot deliver head at 0:00:00 hrs.
  WARNING: Pump PU9 closed because cannot deliver head at 0:00:00 hrs.
  WARNING: Pump PU11 closed because cannot deliver head at 0:00:00 hrs.
   
  WARNING: Pump PU7 closed because cannot deliver head at 0:00:00 hrs.
   
  WARNING: Pump PU8 closed because cannot deliver head at 0:00:00 hrs.
  WARNING: Pump PU9 closed because cannot deliver head at 0:00:00 hrs.
  WARNING: Pump PU11 closed because cannot deliver head at 0:00:00 hrs.
   
  WARNING: Pump PU7 closed because cannot deliver head at 0:00:00 hrs.
  WARNING: Pump PU8 closed because cannot deliver head at 0:00:00 hrs.
  WARNING: Pump PU9 closed because cannot deliver head at 0:00:00 hrs.
  WARNING: Pump PU11 closed because cannot deliver head at 0:00:00 hrs.
   
  WARNING: Pump PU7 closed because cannot deliver head at 0:00:00 hrs.
   
  WARNING: Pump PU7 closed because cannot deliver head at 0:00:00 hrs.
  WARNING: Pump PU8 closed because cannot deliver head at 0:00:00 hrs.
  WARNING: Pump PU9 closed because cannot deliver head at 0:00:00 hrs.
  WARNING: Pump PU11 closed because cannot deliver head at 0:00:00 hrs.
   
  WARNING: Pump PU8 closed because cannot deliver head at 0:00:00 hrs.
  WARNING: Pump PU9 closed because cannot deliver head at 0:00:00 hrs.
  WARNING: Pump PU11 closed because cannot deliver head at 0:00:00 hrs.
   
  WARNING: Pump PU7 closed because cannot deliver head at 0:00:00 hrs.
  WARNING: Pump PU8 closed because cannot deliver head at 0:00:00 hrs.
  WARNING: Pump PU9 closed because cannot deliver head at 0:00:00 hrs.
  WARNING: Pump PU11 closed because cannot deliver head at 0:00:00 hrs.
   
  WARNING: Pump PU8 closed because cannot deliver head at 0:00:00 hrs.
  WARNING: Pump PU9 closed because cannot deliver head at 0:00:00 hrs.
  WARNING: Pump PU11 closed because cannot deliver head at 0:00:00 hrs.
   
  WARNING: Pump PU7 closed because cannot deliver head at 0:00:00 hrs.
   
  WARNING: Pump PU7 closed because cannot deliver head at 0:00:00 hrs.
  WARNING: Pump PU8 closed because cannot deliver head at 0:00:00 hrs.
  WARNING: Pump PU9 closed because cannot deliver head at 0:00:00 hrs.
  WARNING: Pump PU11 closed because cannot deliver head at 0:00:00 hrs.
   
  WARNING: Pump PU7 closed because cannot deliver head at 0:00:00 hrs.
  WARNING: Pump PU8 closed because cannot deliver head at 0:00:00 hrs.
  WARNING: Pump PU9 closed because cannot deliver head at 0:00:00 hrs.
  WARNING: Pump PU11 closed because cannot deliver head at 0:00:00 hrs.
   
  WARNING: Pump PU8 closed because cannot deliver head at 0:00:00 hrs.
  WARNING: Pump PU9 closed because cannot deliver head at 0:00:00 hrs.
  WARNING: Pump PU11 closed because cannot deliver head at 0:00:00 hrs.
   
  WARNING: Pump PU8 closed because cannot deliver head at 0:00:00 hrs.
  WARNING: Pump PU9 closed because cannot deliver head at 0:00:00 hrs.
  WARNING: Pump PU11 closed because cannot deliver head at 0:00:00 hrs.
   
  WARNING: Pump PU8 closed because cannot deliver head at 0:00:00 hrs.
  WARNING: Pump PU9 closed because cannot deliver head at 0:00:00 hrs.
  WARNING: Pump PU11 closed because cannot deliver head at 0:00:00 hrs.
   
  WARNING: Pump PU7 closed because cannot deliver head at 0:00:00 hrs.
   
  WARNING: Pump PU8 closed because cannot deliver head at 0:00:00 hrs.
  WARNING: Pump PU9 closed because cannot deliver head at 0:00:00 hrs.
  WARNING: Pump PU11 closed because cannot deliver head at 0:00:00 hrs.
   
  WARNING: Pump PU7 closed because cannot deliver head at 0:00:00 hrs.
  WARNING: Pump PU8 closed because cannot deliver head at 0:00:00 hrs.
  WARNING: Pump PU9 closed because cannot deliver head at 0:00:00 hrs.
  WARNING: Pump PU11 closed because cannot deliver head at 0:00:00 hrs.
   
  WARNING: Pump PU7 closed because cannot deliver head at 0:00:00 hrs.
  WARNING: Pump PU8 closed because cannot deliver head at 0:00:00 hrs.
  WARNING: Pump PU9 closed because cannot deliver head at 0:00:00 hrs.
  WARNING: Pump PU11 closed because cannot deliver head at 0:00:00 hrs.
   
  WARNING: Pump PU8 closed because cannot deliver head at 0:00:00 hrs.
  WARNING: Pump PU9 closed because cannot deliver head at 0:00:00 hrs.
  WARNING: Pump PU11 closed because cannot deliver head at 0:00:00 hrs.
   
  WARNING: Pump PU7 closed because cannot deliver head at 0:00:00 hrs.
  WARNING: Pump PU8 closed because cannot deliver head at 0:00:00 hrs.
  WARNING: Pump PU9 closed because cannot deliver head at 0:00:00 hrs.
  WARNING: Pump PU11 closed because cannot deliver head at 0:00:00 hrs.
   
  WARNING: Pump PU7 closed because cannot deliver head at 0:00:00 hrs.
  WARNING: Pump PU8 closed because cannot deliver head at 0:00:00 hrs.
  WARNING: Pump PU9 closed because cannot deliver head at 0:00:00 hrs.
  WARNING: Pump PU11 closed because cannot deliver head at 0:00:00 hrs.
   
  WARNING: Pump PU8 closed because cannot deliver head at 0:00:00 hrs.
  WARNING: Pump PU9 closed because cannot deliver head at 0:00:00 hrs.
  WARNING: Pump PU11 closed because cannot deliver head at 0:00:00 hrs.
   
  WARNING: Pump PU7 closed because cannot deliver head at 0:00:00 hrs.
   
  WARNING: Pump PU7 closed because cannot deliver head at 0:00:00 hrs.
  WARNING: Pump PU8 closed because cannot deliver head at 0:00:00 hrs.
  WARNING: Pump PU9 closed because cannot deliver head at 0:00:00 hrs.
  WARNING: Pump PU11 closed because cannot deliver head at 0:00:00 hrs.
   
  WARNING: Pump PU8 closed because cannot deliver head at 0:00:00 hrs.
  WARNING: Pump PU9 closed because cannot deliver head at 0:00:00 hrs.
  WARNING: Pump PU11 closed because cannot deliver head at 0:00:00 hrs.
   
  WARNING: Pump PU7 closed because cannot deliver head at 0:00:00 hrs.
  WARNING: Pump PU8 closed because cannot deliver head at 0:00:00 hrs.
  WARNING: Pump PU9 closed because cannot deliver head at 0:00:00 hrs.
  WARNING: Pump PU11 closed because cannot deliver head at 0:00:00 hrs.
   
  WARNING: Pump PU7 closed because cannot deliver head at 0:00:00 hrs.
  WARNING: Pump PU8 closed because cannot deliver head at 0:00:00 hrs.
  WARNING: Pump PU9 closed because cannot deliver head at 0:00:00 hrs.
  WARNING: Pump PU11 closed because cannot deliver head at 0:00:00 hrs.
   
  WARNING: Pump PU7 closed because cannot deliver head at 0:00:00 hrs.
  WARNING: Pump PU8 closed because cannot deliver head at 0:00:00 hrs.
  WARNING: Pump PU9 closed because cannot deliver head at 0:00:00 hrs.
  WARNING: Pump PU11 closed because cannot deliver head at 0:00:00 hrs.
   
  WARNING: Pump PU8 closed because cannot deliver head at 0:00:00 hrs.
  WARNING: Pump PU9 closed because cannot deliver head at 0:00:00 hrs.
  WARNING: Pump PU11 closed because cannot deliver head at 0:00:00 hrs.
   
  WARNING: Pump PU7 closed because cannot deliver head at 0:00:00 hrs.
   
  WARNING: Pump PU7 closed because cannot deliver head at 0:00:00 hrs.
  WARNING: Pump PU8 closed because cannot deliver head at 0:00:00 hrs.
  WARNING: Pump PU9 closed because cannot deliver head at 0:00:00 hrs.
  WARNING: Pump PU11 closed because cannot deliver head at 0:00:00 hrs.
   
  WARNING: Pump PU7 closed because cannot deliver head at 0:00:00 hrs.
  WARNING: Pump PU8 closed because cannot deliver head at 0:00:00 hrs.
  WARNING: Pump PU9 closed because cannot deliver head at 0:00:00 hrs.
  WARNING: Pump PU11 closed because cannot deliver head at 0:00:00 hrs.
   
  WARNING: Pump PU7 closed because cannot deliver head at 0:00:00 hrs.
   
  WARNING: Pump PU7 closed because cannot deliver head at 0:00:00 hrs.
  WARNING: Pump PU8 closed because cannot deliver head at 0:00:00 hrs.
  WARNING: Pump PU9 closed because cannot deliver head at 0:00:00 hrs.
  WARNING: Pump PU11 closed because cannot deliver head at 0:00:00 hrs.
   
  WARNING: Pump PU7 closed because cannot deliver head at 0:00:00 hrs.
   
  WARNING: Pump PU7 closed because cannot deliver head at 0:00:00 hrs.
  WARNING: Pump PU8 closed because cannot deliver head at 0:00:00 hrs.
  WARNING: Pump PU9 closed because cannot deliver head at 0:00:00 hrs.
  WARNING: Pump PU11 closed because cannot deliver head at 0:00:00 hrs.
   
  WARNING: Pump PU7 closed because cannot deliver head at 0:00:00 hrs.
  WARNING: Pump PU8 closed because cannot deliver head at 0:00:00 hrs.
  WARNING: Pump PU9 closed because cannot deliver head at 0:00:00 hrs.
  WARNING: Pump PU11 closed because cannot deliver head at 0:00:00 hrs.
   
  WARNING: Pump PU8 closed because cannot deliver head at 0:00:00 hrs.
  WARNING: Pump PU9 closed because cannot deliver head at 0:00:00 hrs.
  WARNING: Pump PU11 closed because cannot deliver head at 0:00:00 hrs.
   
  WARNING: Pump PU7 closed because cannot deliver head at 0:00:00 hrs.
  WARNING: Pump PU8 closed because cannot deliver head at 0:00:00 hrs.
  WARNING: Pump PU9 closed because cannot deliver head at 0:00:00 hrs.
  WARNING: Pump PU11 closed because cannot deliver head at 0:00:00 hrs.
   
  WARNING: Pump PU7 closed because cannot deliver head at 0:00:00 hrs.
   
  WARNING: Pump PU8 closed because cannot deliver head at 0:00:00 hrs.
  WARNING: Pump PU9 closed because cannot deliver head at 0:00:00 hrs.
  WARNING: Pump PU11 closed because cannot deliver head at 0:00:00 hrs.
   
  WARNING: Pump PU7 closed because cannot deliver head at 0:00:00 hrs.
  WARNING: Pump PU8 closed because cannot deliver head at 0:00:00 hrs.
  WARNING: Pump PU9 closed because cannot deliver head at 0:00:00 hrs.
  WARNING: Pump PU11 closed because cannot deliver head at 0:00:00 hrs.
   
  WARNING: Pump PU7 closed because cannot deliver head at 0:00:00 hrs.
   
  WARNING: Pump PU7 closed because cannot deliver head at 0:00:00 hrs.
   
  WARNING: Pump PU8 closed because cannot deliver head at 0:00:00 hrs.
  WARNING: Pump PU9 closed because cannot deliver head at 0:00:00 hrs.
  WARNING: Pump PU11 closed because cannot deliver head at 0:00:00 hrs.
   
  WARNING: Pump PU7 closed because cannot deliver head at 0:00:00 hrs.
  WARNING: Pump PU8 closed because cannot deliver head at 0:00:00 hrs.
  WARNING: Pump PU9 closed because cannot deliver head at 0:00:00 hrs.
  WARNING: Pump PU11 closed because cannot deliver head at 0:00:00 hrs.
   
  WARNING: Pump PU7 closed because cannot deliver head at 0:00:00 hrs.
   
  WARNING: Pump PU8 closed because cannot deliver head at 0:00:00 hrs.
  WARNING: Pump PU9 closed because cannot deliver head at 0:00:00 hrs.
  WARNING: Pump PU11 closed because cannot deliver head at 0:00:00 hrs.
   
  WARNING: Pump PU7 closed because cannot deliver head at 0:00:00 hrs.
  WARNING: Pump PU8 closed because cannot deliver head at 0:00:00 hrs.
  WARNING: Pump PU9 closed because cannot deliver head at 0:00:00 hrs.
  WARNING: Pump PU11 closed because cannot deliver head at 0:00:00 hrs.
   
  WARNING: Pump PU7 closed because cannot deliver head at 0:00:00 hrs.
  WARNING: Pump PU8 closed because cannot deliver head at 0:00:00 hrs.
  WARNING: Pump PU9 closed because cannot deliver head at 0:00:00 hrs.
  WARNING: Pump PU11 closed because cannot deliver head at 0:00:00 hrs.
   
  WARNING: Pump PU7 closed because cannot deliver head at 0:00:00 hrs.
   
  WARNING: Pump PU7 closed because cannot deliver head at 0:00:00 hrs.
  WARNING: Pump PU8 closed because cannot deliver head at 0:00:00 hrs.
  WARNING: Pump PU9 closed because cannot deliver head at 0:00:00 hrs.
  WARNING: Pump PU11 closed because cannot deliver head at 0:00:00 hrs.
   
  WARNING: Pump PU7 closed because cannot deliver head at 0:00:00 hrs.
   
  WARNING: Pump PU8 closed because cannot deliver head at 0:00:00 hrs.
  WARNING: Pump PU9 closed because cannot deliver head at 0:00:00 hrs.
  WARNING: Pump PU11 closed because cannot deliver head at 0:00:00 hrs.
   
  WARNING: Pump PU7 closed because cannot deliver head at 0:00:00 hrs.
  WARNING: Pump PU8 closed because cannot deliver head at 0:00:00 hrs.
  WARNING: Pump PU9 closed because cannot deliver head at 0:00:00 hrs.
  WARNING: Pump PU11 closed because cannot deliver head at 0:00:00 hrs.
   
  WARNING: Pump PU7 closed because cannot deliver head at 0:00:00 hrs.
   
  WARNING: Pump PU7 closed because cannot deliver head at 0:00:00 hrs.
   
  WARNING: Pump PU8 closed because cannot deliver head at 0:00:00 hrs.
  WARNING: Pump PU9 closed because cannot deliver head at 0:00:00 hrs.
  WARNING: Pump PU11 closed because cannot deliver head at 0:00:00 hrs.
   
  WARNING: Pump PU7 closed because cannot deliver head at 0:00:00 hrs.
   
  WARNING: Pump PU7 closed because cannot deliver head at 0:00:00 hrs.
   
  WARNING: Pump PU8 closed because cannot deliver head at 0:00:00 hrs.
  WARNING: Pump PU9 closed because cannot deliver head at 0:00:00 hrs.
  WARNING: Pump PU11 closed because cannot deliver head at 0:00:00 hrs.
   
  WARNING: Pump PU7 closed because cannot deliver head at 0:00:00 hrs.
   
  WARNING: Pump PU7 closed because cannot deliver head at 0:00:00 hrs.
  WARNING: Pump PU8 closed because cannot deliver head at 0:00:00 hrs.
  WARNING: Pump PU9 closed because cannot deliver head at 0:00:00 hrs.
  WARNING: Pump PU11 closed because cannot deliver head at 0:00:00 hrs.
   
  WARNING: Pump PU8 closed because cannot deliver head at 0:00:00 hrs.
  WARNING: Pump PU9 closed because cannot deliver head at 0:00:00 hrs.
  WARNING: Pump PU11 closed because cannot deliver head at 0:00:00 hrs.
   
  WARNING: Pump PU8 closed because cannot deliver head at 0:00:00 hrs.
  WARNING: Pump PU9 closed because cannot deliver head at 0:00:00 hrs.
  WARNING: Pump PU11 closed because cannot deliver head at 0:00:00 hrs.
   
  WARNING: Pump PU7 closed because cannot deliver head at 0:00:00 hrs.
  WARNING: Pump PU8 closed because cannot deliver head at 0:00:00 hrs.
  WARNING: Pump PU9 closed because cannot deliver head at 0:00:00 hrs.
  WARNING: Pump PU11 closed because cannot deliver head at 0:00:00 hrs.
   
  WARNING: Pump PU7 closed because cannot deliver head at 0:00:00 hrs.
   
  WARNING: Pump PU7 closed because cannot deliver head at 0:00:00 hrs.
   
  WARNING: Pump PU7 closed because cannot deliver head at 0:00:00 hrs.
  WARNING: Pump PU8 closed because cannot deliver head at 0:00:00 hrs.
  WARNING: Pump PU9 closed because cannot deliver head at 0:00:00 hrs.
  WARNING: Pump PU11 closed because cannot deliver head at 0:00:00 hrs.
   
  WARNING: Pump PU8 closed because cannot deliver head at 0:00:00 hrs.
  WARNING: Pump PU9 closed because cannot deliver head at 0:00:00 hrs.
  WARNING: Pump PU11 closed because cannot deliver head at 0:00:00 hrs.
   
  WARNING: Pump PU7 closed because cannot deliver head at 0:00:00 hrs.
   
  WARNING: Pump PU7 closed because cannot deliver head at 0:00:00 hrs.
  WARNING: Pump PU8 closed because cannot deliver head at 0:00:00 hrs.
  WARNING: Pump PU9 closed because cannot deliver head at 0:00:00 hrs.
  WARNING: Pump PU11 closed because cannot deliver head at 0:00:00 hrs.
   
  WARNING: Pump PU8 closed because cannot deliver head at 0:00:00 hrs.
  WARNING: Pump PU9 closed because cannot deliver head at 0:00:00 hrs.
  WARNING: Pump PU11 closed because cannot deliver head at 0:00:00 hrs.
   
  WARNING: Pump PU7 closed because cannot deliver head at 0:00:00 hrs.
  WARNING: Pump PU8 closed because cannot deliver head at 0:00:00 hrs.
  WARNING: Pump PU9 closed because cannot deliver head at 0:00:00 hrs.
  WARNING: Pump PU11 closed because cannot deliver head at 0:00:00 hrs.
   
  WARNING: Pump PU7 closed because cannot deliver head at 0:00:00 hrs.
   
  WARNING: Pump PU7 closed because cannot deliver head at 0:00:00 hrs.
   
  WARNING: Pump PU7 closed because cannot deliver head at 0:00:00 hrs.
   
  WARNING: Pump PU7 closed because cannot deliver head at 0:00:00 hrs.
  WARNING: Pump PU8 closed because cannot deliver head at 0:00:00 hrs.
  WARNING: Pump PU9 closed because cannot deliver head at 0:00:00 hrs.
  WARNING: Pump PU11 closed because cannot deliver head at 0:00:00 hrs.
   
  WARNING: Pump PU8 closed because cannot deliver head at 0:00:00 hrs.
  WARNING: Pump PU9 closed because cannot deliver head at 0:00:00 hrs.
  WARNING: Pump PU11 closed because cannot deliver head at 0:00:00 hrs.
   
  WARNING: Pump PU7 closed because cannot deliver head at 0:00:00 hrs.
   
  WARNING: Pump PU7 closed because cannot deliver head at 0:00:00 hrs.
  WARNING: Pump PU8 closed because cannot deliver head at 0:00:00 hrs.
  WARNING: Pump PU9 closed because cannot deliver head at 0:00:00 hrs.
  WARNING: Pump PU11 closed because cannot deliver head at 0:00:00 hrs.
   
  WARNING: Pump PU7 closed because cannot deliver head at 0:00:00 hrs.
   
  WARNING: Pump PU8 closed because cannot deliver head at 0:00:00 hrs.
  WARNING: Pump PU9 closed because cannot deliver head at 0:00:00 hrs.
  WARNING: Pump PU11 closed because cannot deliver head at 0:00:00 hrs.
   
  WARNING: Pump PU7 closed because cannot deliver head at 0:00:00 hrs.
  WARNING: Pump PU8 closed because cannot deliver head at 0:00:00 hrs.
  WARNING: Pump PU9 closed because cannot deliver head at 0:00:00 hrs.
  WARNING: Pump PU11 closed because cannot deliver head at 0:00:00 hrs.
   
  WARNING: Pump PU8 closed because cannot deliver head at 0:00:00 hrs.
  WARNING: Pump PU9 closed because cannot deliver head at 0:00:00 hrs.
  WARNING: Pump PU11 closed because cannot deliver head at 0:00:00 hrs.
   
  WARNING: Pump PU8 closed because cannot deliver head at 0:00:00 hrs.
  WARNING: Pump PU9 closed because cannot deliver head at 0:00:00 hrs.
  WARNING: Pump PU11 closed because cannot deliver head at 0:00:00 hrs.
   
  WARNING: Pump PU7 closed because cannot deliver head at 0:00:00 hrs.
   
  WARNING: Pump PU8 closed because cannot deliver head at 0:00:00 hrs.
  WARNING: Pump PU9 closed because cannot deliver head at 0:00:00 hrs.
  WARNING: Pump PU11 closed because cannot deliver head at 0:00:00 hrs.
   
  WARNING: Pump PU8 closed because cannot deliver head at 0:00:00 hrs.
  WARNING: Pump PU9 closed because cannot deliver head at 0:00:00 hrs.
  WARNING: Pump PU11 closed because cannot deliver head at 0:00:00 hrs.
   
  WARNING: Pump PU8 closed because cannot deliver head at 0:00:00 hrs.
  WARNING: Pump PU9 closed because cannot deliver head at 0:00:00 hrs.
  WARNING: Pump PU11 closed because cannot deliver head at 0:00:00 hrs.
   
  WARNING: Pump PU7 closed because cannot deliver head at 0:00:00 hrs.
  WARNING: Pump PU8 closed because cannot deliver head at 0:00:00 hrs.
  WARNING: Pump PU9 closed because cannot deliver head at 0:00:00 hrs.
  WARNING: Pump PU11 closed because cannot deliver head at 0:00:00 hrs.
   
  WARNING: Pump PU7 closed because cannot deliver head at 0:00:00 hrs.
  WARNING: Pump PU8 closed because cannot deliver head at 0:00:00 hrs.
  WARNING: Pump PU9 closed because cannot deliver head at 0:00:00 hrs.
  WARNING: Pump PU11 closed because cannot deliver head at 0:00:00 hrs.
   
  WARNING: Pump PU7 closed because cannot deliver head at 0:00:00 hrs.
  WARNING: Pump PU8 closed because cannot deliver head at 0:00:00 hrs.
  WARNING: Pump PU9 closed because cannot deliver head at 0:00:00 hrs.
  WARNING: Pump PU11 closed because cannot deliver head at 0:00:00 hrs.
   
  WARNING: Pump PU7 closed because cannot deliver head at 0:00:00 hrs.
   
  WARNING: Pump PU7 closed because cannot deliver head at 0:00:00 hrs.
   
  WARNING: Pump PU7 closed because cannot deliver head at 0:00:00 hrs.
  WARNING: Pump PU8 closed because cannot deliver head at 0:00:00 hrs.
  WARNING: Pump PU9 closed because cannot deliver head at 0:00:00 hrs.
  WARNING: Pump PU11 closed because cannot deliver head at 0:00:00 hrs.
   
  WARNING: Pump PU7 closed because cannot deliver head at 0:00:00 hrs.
   
  WARNING: Pump PU7 closed because cannot deliver head at 0:00:00 hrs.
   
  WARNING: Pump PU7 closed because cannot deliver head at 0:00:00 hrs.
   
  WARNING: Pump PU8 closed because cannot deliver head at 0:00:00 hrs.
  WARNING: Pump PU9 closed because cannot deliver head at 0:00:00 hrs.
  WARNING: Pump PU11 closed because cannot deliver head at 0:00:00 hrs.
   
  WARNING: Pump PU7 closed because cannot deliver head at 0:00:00 hrs.
  WARNING: Pump PU8 closed because cannot deliver head at 0:00:00 hrs.
  WARNING: Pump PU9 closed because cannot deliver head at 0:00:00 hrs.
  WARNING: Pump PU11 closed because cannot deliver head at 0:00:00 hrs.
   
  WARNING: Pump PU7 closed because cannot deliver head at 0:00:00 hrs.
  WARNING: Pump PU8 closed because cannot deliver head at 0:00:00 hrs.
  WARNING: Pump PU9 closed because cannot deliver head at 0:00:00 hrs.
  WARNING: Pump PU11 closed because cannot deliver head at 0:00:00 hrs.
   
  WARNING: Pump PU8 closed because cannot deliver head at 0:00:00 hrs.
  WARNING: Pump PU9 closed because cannot deliver head at 0:00:00 hrs.
  WARNING: Pump PU11 closed because cannot deliver head at 0:00:00 hrs.
   
  WARNING: Pump PU7 closed because cannot deliver head at 0:00:00 hrs.
   
  WARNING: Pump PU8 closed because cannot deliver head at 0:00:00 hrs.
  WARNING: Pump PU9 closed because cannot deliver head at 0:00:00 hrs.
  WARNING: Pump PU11 closed because cannot deliver head at 0:00:00 hrs.
   
  WARNING: Pump PU7 closed because cannot deliver head at 0:00:00 hrs.
   
  WARNING: Pump PU7 closed because cannot deliver head at 0:00:00 hrs.
  WARNING: Pump PU8 closed because cannot deliver head at 0:00:00 hrs.
  WARNING: Pump PU9 closed because cannot deliver head at 0:00:00 hrs.
  WARNING: Pump PU11 closed because cannot deliver head at 0:00:00 hrs.
   
  WARNING: Pump PU7 closed because cannot deliver head at 0:00:00 hrs.
  WARNING: Pump PU8 closed because cannot deliver head at 0:00:00 hrs.
  WARNING: Pump PU9 closed because cannot deliver head at 0:00:00 hrs.
  WARNING: Pump PU11 closed because cannot deliver head at 0:00:00 hrs.
   
  WARNING: Pump PU8 closed because cannot deliver head at 0:00:00 hrs.
  WARNING: Pump PU9 closed because cannot deliver head at 0:00:00 hrs.
  WARNING: Pump PU11 closed because cannot deliver head at 0:00:00 hrs.
   
  WARNING: Pump PU7 closed because cannot deliver head at 0:00:00 hrs.
   
  WARNING: Pump PU8 closed because cannot deliver head at 0:00:00 hrs.
  WARNING: Pump PU9 closed because cannot deliver head at 0:00:00 hrs.
  WARNING: Pump PU11 closed because cannot deliver head at 0:00:00 hrs.
   
  WARNING: Pump PU7 closed because cannot deliver head at 0:00:00 hrs.
   
  WARNING: Pump PU8 closed because cannot deliver head at 0:00:00 hrs.
  WARNING: Pump PU9 closed because cannot deliver head at 0:00:00 hrs.
  WARNING: Pump PU11 closed because cannot deliver head at 0:00:00 hrs.
   
  WARNING: Pump PU7 closed because cannot deliver head at 0:00:00 hrs.
  WARNING: Pump PU8 closed because cannot deliver head at 0:00:00 hrs.
  WARNING: Pump PU9 closed because cannot deliver head at 0:00:00 hrs.
  WARNING: Pump PU11 closed because cannot deliver head at 0:00:00 hrs.
   
  WARNING: Pump PU8 closed because cannot deliver head at 0:00:00 hrs.
  WARNING: Pump PU9 closed because cannot deliver head at 0:00:00 hrs.
  WARNING: Pump PU11 closed because cannot deliver head at 0:00:00 hrs.
   
  WARNING: Pump PU7 closed because cannot deliver head at 0:00:00 hrs.
  WARNING: Pump PU8 closed because cannot deliver head at 0:00:00 hrs.
  WARNING: Pump PU9 closed because cannot deliver head at 0:00:00 hrs.
  WARNING: Pump PU11 closed because cannot deliver head at 0:00:00 hrs.
   
  WARNING: Pump PU7 closed because cannot deliver head at 0:00:00 hrs.
[...]
  WARNING: Pump PU9 closed because cannot deliver head at 0:00:00 hrs.
  WARNING: Pump PU11 closed because cannot deliver head at 0:00:00 hrs.
   
  WARNING: Pump PU8 closed because cannot deliver head at 0:00:00 hrs.
  WARNING: Pump PU9 closed because cannot deliver head at 0:00:00 hrs.
  WARNING: Pump PU11 closed because cannot deliver head at 0:00:00 hrs.
   
  WARNING: Pump PU7 closed because cannot deliver head at 0:00:00 hrs.
   
  WARNING: Pump PU7 closed because cannot deliver head at 0:00:00 hrs.
   
  WARNING: Pump PU7 closed because cannot deliver head at 0:00:00 hrs.
   
  WARNING: Pump PU7 closed because cannot deliver head at 0:00:00 hrs.
   
  WARNING: Pump PU7 closed because cannot deliver head at 0:00:00 hrs.
   
  WARNING: Pump PU7 closed because cannot deliver head at 0:00:00 hrs.
   
  WARNING: Pump PU7 closed because cannot deliver head at 0:00:00 hrs.
  WARNING: Pump PU8 closed because cannot deliver head at 0:00:00 hrs.
  WARNING: Pump PU9 closed because cannot deliver head at 0:00:00 hrs.
  WARNING: Pump PU11 closed because cannot deliver head at 0:00:00 hrs.
   
  WARNING: Pump PU7 closed because cannot deliver head at 0:00:00 hrs.
  WARNING: Pump PU8 closed because cannot deliver head at 0:00:00 hrs.
  WARNING: Pump PU9 closed because cannot deliver head at 0:00:00 hrs.
  WARNING: Pump PU11 closed because cannot deliver head at 0:00:00 hrs.
   
  WARNING: Pump PU7 closed because cannot deliver head at 0:00:00 hrs.
  WARNING: Pump PU8 closed because cannot deliver head at 0:00:00 hrs.
  WARNING: Pump PU9 closed because cannot deliver head at 0:00:00 hrs.
  WARNING: Pump PU11 closed because cannot deliver head at 0:00:00 hrs.
   
  WARNING: Pump PU7 closed because cannot deliver head at 0:00:00 hrs.
   
  WARNING: Pump PU7 closed because cannot deliver head at 0:00:00 hrs.
   
  WARNING: Pump PU8 closed because cannot deliver head at 0:00:00 hrs.
  WARNING: Pump PU9 closed because cannot deliver head at 0:00:00 hrs.
  WARNING: Pump PU11 closed because cannot deliver head at 0:00:00 hrs.
   
  WARNING: Pump PU7 closed because cannot deliver head at 0:00:00 hrs.
  WARNING: Pump PU8 closed because cannot deliver head at 0:00:00 hrs.
  WARNING: Pump PU9 closed because cannot deliver head at 0:00:00 hrs.
  WARNING: Pump PU11 closed because cannot deliver head at 0:00:00 hrs.
   
  WARNING: Pump PU7 closed because cannot deliver head at 0:00:00 hrs.
  WARNING: Pump PU8 closed because cannot deliver head at 0:00:00 hrs.
  WARNING: Pump PU9 closed because cannot deliver head at 0:00:00 hrs.
  WARNING: Pump PU11 closed because cannot deliver head at 0:00:00 hrs.
   
  WARNING: Pump PU8 closed because cannot deliver head at 0:00:00 hrs.
  WARNING: Pump PU9 closed because cannot deliver head at 0:00:00 hrs.
  WARNING: Pump PU11 closed because cannot deliver head at 0:00:00 hrs.
   
  WARNING: Pump PU8 closed because cannot deliver head at 0:00:00 hrs.
  WARNING: Pump PU9 closed because cannot deliver head at 0:00:00 hrs.
  WARNING: Pump PU11 closed because cannot deliver head at 0:00:00 hrs.
   
  WARNING: Pump PU7 closed because cannot deliver head at 0:00:00 hrs.
   
  WARNING: Pump PU7 closed because cannot deliver head at 0:00:00 hrs.
  WARNING: Pump PU8 closed because cannot deliver head at 0:00:00 hrs.
  WARNING: Pump PU9 closed because cannot deliver head at 0:00:00 hrs.
  WARNING: Pump PU11 closed because cannot deliver head at 0:00:00 hrs.
   
  WARNING: Pump PU8 closed because cannot deliver head at 0:00:00 hrs.
  WARNING: Pump PU9 closed because cannot deliver head at 0:00:00 hrs.
  WARNING: Pump PU11 closed because cannot deliver head at 0:00:00 hrs.
   
  WARNING: Pump PU8 closed because cannot deliver head at 0:00:00 hrs.
  WARNING: Pump PU9 closed because cannot deliver head at 0:00:00 hrs.
  WARNING: Pump PU11 closed because cannot deliver head at 0:00:00 hrs.
   
  WARNING: Pump PU7 closed because cannot deliver head at 0:00:00 hrs.
   
  WARNING: Pump PU7 closed because cannot deliver head at 0:00:00 hrs.
   
  WARNING: Pump PU7 closed because cannot deliver head at 0:00:00 hrs.
  WARNING: Pump PU8 closed because cannot deliver head at 0:00:00 hrs.
  WARNING: Pump PU9 closed because cannot deliver head at 0:00:00 hrs.
  WARNING: Pump PU11 closed because cannot deliver head at 0:00:00 hrs.
   
  WARNING: Pump PU7 closed because cannot deliver head at 0:00:00 hrs.
   
  WARNING: Pump PU7 closed because cannot deliver head at 0:00:00 hrs.
  WARNING: Pump PU8 closed because cannot deliver head at 0:00:00 hrs.
  WARNING: Pump PU9 closed because cannot deliver head at 0:00:00 hrs.
  WARNING: Pump PU11 closed because cannot deliver head at 0:00:00 hrs.
   
  WARNING: Pump PU8 closed because cannot deliver head at 0:00:00 hrs.
  WARNING: Pump PU9 closed because cannot deliver head at 0:00:00 hrs.
  WARNING: Pump PU11 closed because cannot deliver head at 0:00:00 hrs.
   
  WARNING: Pump PU8 closed because cannot deliver head at 0:00:00 hrs.
  WARNING: Pump PU9 closed because cannot deliver head at 0:00:00 hrs.
  WARNING: Pump PU11 closed because cannot deliver head at 0:00:00 hrs.
   
  WARNING: Pump PU7 closed because cannot deliver head at 0:00:00 hrs.
   
  WARNING: Pump PU7 closed because cannot deliver head at 0:00:00 hrs.
  WARNING: Pump PU8 closed because cannot deliver head at 0:00:00 hrs.
  WARNING: Pump PU9 closed because cannot deliver head at 0:00:00 hrs.
  WARNING: Pump PU11 closed because cannot deliver head at 0:00:00 hrs.
   
  WARNING: Pump PU8 closed because cannot deliver head at 0:00:00 hrs.
  WARNING: Pump PU9 closed because cannot deliver head at 0:00:00 hrs.
  WARNING: Pump PU11 closed because cannot deliver head at 0:00:00 hrs.
   
  WARNING: Pump PU7 closed because cannot deliver head at 0:00:00 hrs.
  WARNING: Pump PU8 closed because cannot deliver head at 0:00:00 hrs.
  WARNING: Pump PU9 closed because cannot deliver head at 0:00:00 hrs.
  WARNING: Pump PU11 closed because cannot deliver head at 0:00:00 hrs.
   
  WARNING: Pump PU7 closed because cannot deliver head at 0:00:00 hrs.
  WARNING: Pump PU8 closed because cannot deliver head at 0:00:00 hrs.
  WARNING: Pump PU9 closed because cannot deliver head at 0:00:00 hrs.
  WARNING: Pump PU11 closed because cannot deliver head at 0:00:00 hrs.
   
  WARNING: Pump PU7 closed because cannot deliver head at 0:00:00 hrs.
   
  WARNING: Pump PU8 closed because cannot deliver head at 0:00:00 hrs.
  WARNING: Pump PU9 closed because cannot deliver head at 0:00:00 hrs.
  WARNING: Pump PU11 closed because cannot deliver head at 0:00:00 hrs.
   
  WARNING: Pump PU8 closed because cannot deliver head at 0:00:00 hrs.
  WARNING: Pump PU9 closed because cannot deliver head at 0:00:00 hrs.
  WARNING: Pump PU11 closed because cannot deliver head at 0:00:00 hrs.
   
  WARNING: Pump PU8 closed because cannot deliver head at 0:00:00 hrs.
  WARNING: Pump PU9 closed because cannot deliver head at 0:00:00 hrs.
  WARNING: Pump PU11 closed because cannot deliver head at 0:00:00 hrs.
   
  WARNING: Pump PU7 closed because cannot deliver head at 0:00:00 hrs.
  WARNING: Pump PU8 closed because cannot deliver head at 0:00:00 hrs.
  WARNING: Pump PU9 closed because cannot deliver head at 0:00:00 hrs.
  WARNING: Pump PU11 closed because cannot deliver head at 0:00:00 hrs.
   
  WARNING: Pump PU7 closed because cannot deliver head at 0:00:00 hrs.
  WARNING: Pump PU8 closed because cannot deliver head at 0:00:00 hrs.
  WARNING: Pump PU9 closed because cannot deliver head at 0:00:00 hrs.
  WARNING: Pump PU11 closed because cannot deliver head at 0:00:00 hrs.
   
  WARNING: Pump PU8 closed because cannot deliver head at 0:00:00 hrs.
  WARNING: Pump PU9 closed because cannot deliver head at 0:00:00 hrs.
  WARNING: Pump PU11 closed because cannot deliver head at 0:00:00 hrs.
   
  WARNING: Pump PU7 closed because cannot deliver head at 0:00:00 hrs.
  WARNING: Pump PU8 closed because cannot deliver head at 0:00:00 hrs.
  WARNING: Pump PU9 closed because cannot deliver head at 0:00:00 hrs.
  WARNING: Pump PU11 closed because cannot deliver head at 0:00:00 hrs.
   
  WARNING: Pump PU8 closed because cannot deliver head at 0:00:00 hrs.
  WARNING: Pump PU9 closed because cannot deliver head at 0:00:00 hrs.
  WARNING: Pump PU11 closed because cannot deliver head at 0:00:00 hrs.
   
  WARNING: Pump PU7 closed because cannot deliver head at 0:00:00 hrs.
  WARNING: Pump PU8 closed because cannot deliver head at 0:00:00 hrs.
  WARNING: Pump PU9 closed because cannot deliver head at 0:00:00 hrs.
  WARNING: Pump PU11 closed because cannot deliver head at 0:00:00 hrs.
   
  WARNING: Pump PU8 closed because cannot deliver head at 0:00:00 hrs.
  WARNING: Pump PU9 closed because cannot deliver head at 0:00:00 hrs.
  WARNING: Pump PU11 closed because cannot deliver head at 0:00:00 hrs.
   
  WARNING: Pump PU7 closed because cannot deliver head at 0:00:00 hrs.
  WARNING: Pump PU8 closed because cannot deliver head at 0:00:00 hrs.
  WARNING: Pump PU9 closed because cannot deliver head at 0:00:00 hrs.
  WARNING: Pump PU11 closed because cannot deliver head at 0:00:00 hrs.
   
  WARNING: Pump PU7 closed because cannot deliver head at 0:00:00 hrs.
  WARNING: Pump PU8 closed because cannot deliver head at 0:00:00 hrs.
  WARNING: Pump PU9 closed because cannot deliver head at 0:00:00 hrs.
  WARNING: Pump PU11 closed because cannot deliver head at 0:00:00 hrs.
   
  WARNING: Pump PU8 closed because cannot deliver head at 0:00:00 hrs.
  WARNING: Pump PU9 closed because cannot deliver head at 0:00:00 hrs.
  WARNING: Pump PU11 closed because cannot deliver head at 0:00:00 hrs.
   
  WARNING: Pump PU8 closed because cannot deliver head at 0:00:00 hrs.
  WARNING: Pump PU9 closed because cannot deliver head at 0:00:00 hrs.
  WARNING: Pump PU11 closed because cannot deliver head at 0:00:00 hrs.
   
  WARNING: Pump PU7 closed because cannot deliver head at 0:00:00 hrs.
   
  WARNING: Pump PU8 closed because cannot deliver head at 0:00:00 hrs.
  WARNING: Pump PU9 closed because cannot deliver head at 0:00:00 hrs.
  WARNING: Pump PU11 closed because cannot deliver head at 0:00:00 hrs.
   
  WARNING: Pump PU8 closed because cannot deliver head at 0:00:00 hrs.
  WARNING: Pump PU9 closed because cannot deliver head at 0:00:00 hrs.
  WARNING: Pump PU11 closed because cannot deliver head at 0:00:00 hrs.
   
  WARNING: Pump PU8 closed because cannot deliver head at 0:00:00 hrs.
  WARNING: Pump PU9 closed because cannot deliver head at 0:00:00 hrs.
  WARNING: Pump PU11 closed because cannot deliver head at 0:00:00 hrs.
   
  WARNING: Pump PU7 closed because cannot deliver head at 0:00:00 hrs.
  WARNING: Pump PU8 closed because cannot deliver head at 0:00:00 hrs.
  WARNING: Pump PU9 closed because cannot deliver head at 0:00:00 hrs.
  WARNING: Pump PU11 closed because cannot deliver head at 0:00:00 hrs.
   
  WARNING: Pump PU7 closed because cannot deliver head at 0:00:00 hrs.
  WARNING: Pump PU8 closed because cannot deliver head at 0:00:00 hrs.
  WARNING: Pump PU9 closed because cannot deliver head at 0:00:00 hrs.
  WARNING: Pump PU11 closed because cannot deliver head at 0:00:00 hrs.
   
  WARNING: Pump PU7 closed because cannot deliver head at 0:00:00 hrs.
  WARNING: Pump PU8 closed because cannot deliver head at 0:00:00 hrs.
  WARNING: Pump PU9 closed because cannot deliver head at 0:00:00 hrs.
  WARNING: Pump PU11 closed because cannot deliver head at 0:00:00 hrs.
   
  WARNING: Pump PU7 closed because cannot deliver head at 0:00:00 hrs.
  WARNING: Pump PU8 closed because cannot deliver head at 0:00:00 hrs.
  WARNING: Pump PU9 closed because cannot deliver head at 0:00:00 hrs.
  WARNING: Pump PU11 closed because cannot deliver head at 0:00:00 hrs.
   
  WARNING: Pump PU8 closed because cannot deliver head at 0:00:00 hrs.
  WARNING: Pump PU9 closed because cannot deliver head at 0:00:00 hrs.
  WARNING: Pump PU11 closed because cannot deliver head at 0:00:00 hrs.
   
  WARNING: Pump PU7 closed because cannot deliver head at 0:00:00 hrs.
  WARNING: Pump PU8 closed because cannot deliver head at 0:00:00 hrs.
  WARNING: Pump PU9 closed because cannot deliver head at 0:00:00 hrs.
  WARNING: Pump PU11 closed because cannot deliver head at 0:00:00 hrs.
   
  WARNING: Pump PU7 closed because cannot deliver head at 0:00:00 hrs.
  WARNING: Pump PU8 closed because cannot deliver head at 0:00:00 hrs.
  WARNING: Pump PU9 closed because cannot deliver head at 0:00:00 hrs.
  WARNING: Pump PU11 closed because cannot deliver head at 0:00:00 hrs.
   
  WARNING: Pump PU7 closed because cannot deliver head at 0:00:00 hrs.
   
  WARNING: Pump PU8 closed because cannot deliver head at 0:00:00 hrs.
  WARNING: Pump PU9 closed because cannot deliver head at 0:00:00 hrs.
  WARNING: Pump PU11 closed because cannot deliver head at 0:00:00 hrs.
   
  WARNING: Pump PU7 closed because cannot deliver head at 0:00:00 hrs.
  WARNING: Pump PU8 closed because cannot deliver head at 0:00:00 hrs.
  WARNING: Pump PU9 closed because cannot deliver head at 0:00:00 hrs.
  WARNING: Pump PU11 closed because cannot deliver head at 0:00:00 hrs.
   
  WARNING: Pump PU7 closed because cannot deliver head at 0:00:00 hrs.
  WARNING: Pump PU8 closed because cannot deliver head at 0:00:00 hrs.
  WARNING: Pump PU9 closed because cannot deliver head at 0:00:00 hrs.
  WARNING: Pump PU11 closed because cannot deliver head at 0:00:00 hrs.
   
  WARNING: Pump PU7 closed because cannot deliver head at 0:00:00 hrs.
  WARNING: Pump PU8 closed because cannot deliver head at 0:00:00 hrs.
  WARNING: Pump PU9 closed because cannot deliver head at 0:00:00 hrs.
  WARNING: Pump PU11 closed because cannot deliver head at 0:00:00 hrs.
   
  WARNING: Pump PU8 closed because cannot deliver head at 0:00:00 hrs.
  WARNING: Pump PU9 closed because cannot deliver head at 0:00:00 hrs.
  WARNING: Pump PU11 closed because cannot deliver head at 0:00:00 hrs.
   
  WARNING: Pump PU7 closed because cannot deliver head at 0:00:00 hrs.
  WARNING: Pump PU8 closed because cannot deliver head at 0:00:00 hrs.
  WARNING: Pump PU9 closed because cannot deliver head at 0:00:00 hrs.
  WARNING: Pump PU11 closed because cannot deliver head at 0:00:00 hrs.
   
  WARNING: Pump PU7 closed because cannot deliver head at 0:00:00 hrs.
  WARNING: Pump PU8 closed because cannot deliver head at 0:00:00 hrs.
  WARNING: Pump PU9 closed because cannot deliver head at 0:00:00 hrs.
  WARNING: Pump PU11 closed because cannot deliver head at 0:00:00 hrs.
   
  WARNING: Pump PU7 closed because cannot deliver head at 0:00:00 hrs.
   
  WARNING: Pump PU7 closed because cannot deliver head at 0:00:00 hrs.
   
  WARNING: Pump PU7 closed because cannot deliver head at 0:00:00 hrs.
   
  WARNING: Pump PU7 closed because cannot deliver head at 0:00:00 hrs.
  WARNING: Pump PU8 closed because cannot deliver head at 0:00:00 hrs.
  WARNING: Pump PU9 closed because cannot deliver head at 0:00:00 hrs.
  WARNING: Pump PU11 closed because cannot deliver head at 0:00:00 hrs.
   
  WARNING: Pump PU7 closed because cannot deliver head at 0:00:00 hrs.
  WARNING: Pump PU8 closed because cannot deliver head at 0:00:00 hrs.
  WARNING: Pump PU9 closed because cannot deliver head at 0:00:00 hrs.
  WARNING: Pump PU11 closed because cannot deliver head at 0:00:00 hrs.
   
  WARNING: Pump PU7 closed because cannot deliver head at 0:00:00 hrs.
   
  WARNING: Pump PU7 closed because cannot deliver head at 0:00:00 hrs.
  WARNING: Pump PU8 closed because cannot deliver head at 0:00:00 hrs.
  WARNING: Pump PU9 closed because cannot deliver head at 0:00:00 hrs.
  WARNING: Pump PU11 closed because cannot deliver head at 0:00:00 hrs.
   
  WARNING: Pump PU7 closed because cannot deliver head at 0:00:00 hrs.
  WARNING: Pump PU8 closed because cannot deliver head at 0:00:00 hrs.
  WARNING: Pump PU9 closed because cannot deliver head at 0:00:00 hrs.
  WARNING: Pump PU11 closed because cannot deliver head at 0:00:00 hrs.
   
  WARNING: Pump PU7 closed because cannot deliver head at 0:00:00 hrs.
   
  WARNING: Pump PU8 closed because cannot deliver head at 0:00:00 hrs.
  WARNING: Pump PU9 closed because cannot deliver head at 0:00:00 hrs.
  WARNING: Pump PU11 closed because cannot deliver head at 0:00:00 hrs.
   
  WARNING: Pump PU8 closed because cannot deliver head at 0:00:00 hrs.
  WARNING: Pump PU9 closed because cannot deliver head at 0:00:00 hrs.
  WARNING: Pump PU11 closed because cannot deliver head at 0:00:00 hrs.
   
  WARNING: Pump PU7 closed because cannot deliver head at 0:00:00 hrs.
   
  WARNING: Pump PU7 closed because cannot deliver head at 0:00:00 hrs.
  WARNING: Pump PU8 closed because cannot deliver head at 0:00:00 hrs.
  WARNING: Pump PU9 closed because cannot deliver head at 0:00:00 hrs.
  WARNING: Pump PU11 closed because cannot deliver head at 0:00:00 hrs.
   
  WARNING: Pump PU7 closed because cannot deliver head at 0:00:00 hrs.
  WARNING: Pump PU8 closed because cannot deliver head at 0:00:00 hrs.
  WARNING: Pump PU9 closed because cannot deliver head at 0:00:00 hrs.
  WARNING: Pump PU11 closed because cannot deliver head at 0:00:00 hrs.
   
  WARNING: Pump PU8 closed because cannot deliver head at 0:00:00 hrs.
  WARNING: Pump PU9 closed because cannot deliver head at 0:00:00 hrs.
  WARNING: Pump PU11 closed because cannot deliver head at 0:00:00 hrs.
   
  WARNING: Pump PU8 closed because cannot deliver head at 0:00:00 hrs.
  WARNING: Pump PU9 closed because cannot deliver head at 0:00:00 hrs.
  WARNING: Pump PU11 closed because cannot deliver head at 0:00:00 hrs.
   
  WARNING: Pump PU8 closed because cannot deliver head at 0:00:00 hrs.
  WARNING: Pump PU9 closed because cannot deliver head at 0:00:00 hrs.
  WARNING: Pump PU11 closed because cannot deliver head at 0:00:00 hrs.
   
  WARNING: Pump PU7 closed because cannot deliver head at 0:00:00 hrs.
  WARNING: Pump PU8 closed because cannot deliver head at 0:00:00 hrs.
  WARNING: Pump PU9 closed because cannot deliver head at 0:00:00 hrs.
  WARNING: Pump PU11 closed because cannot deliver head at 0:00:00 hrs.
   
  WARNING: Pump PU7 closed because cannot deliver head at 0:00:00 hrs.
  WARNING: Pump PU8 closed because cannot deliver head at 0:00:00 hrs.
  WARNING: Pump PU9 closed because cannot deliver head at 0:00:00 hrs.
  WARNING: Pump PU11 closed because cannot deliver head at 0:00:00 hrs.
   
  WARNING: Pump PU7 closed because cannot deliver head at 0:00:00 hrs.
  WARNING: Pump PU8 closed because cannot deliver head at 0:00:00 hrs.
  WARNING: Pump PU9 closed because cannot deliver head at 0:00:00 hrs.
  WARNING: Pump PU11 closed because cannot deliver head at 0:00:00 hrs.
   
  WARNING: Pump PU7 closed because cannot deliver head at 0:00:00 hrs.
   
  WARNING: Pump PU7 closed because cannot deliver head at 0:00:00 hrs.
  WARNING: Pump PU8 closed because cannot deliver head at 0:00:00 hrs.
  WARNING: Pump PU9 closed because cannot deliver head at 0:00:00 hrs.
  WARNING: Pump PU11 closed because cannot deliver head at 0:00:00 hrs.
   
  WARNING: Pump PU7 closed because cannot deliver head at 0:00:00 hrs.
   
  WARNING: Pump PU8 closed because cannot deliver head at 0:00:00 hrs.
  WARNING: Pump PU9 closed because cannot deliver head at 0:00:00 hrs.
  WARNING: Pump PU11 closed because cannot deliver head at 0:00:00 hrs.
   
  WARNING: Pump PU8 closed because cannot deliver head at 0:00:00 hrs.
  WARNING: Pump PU9 closed because cannot deliver head at 0:00:00 hrs.
  WARNING: Pump PU11 closed because cannot deliver head at 0:00:00 hrs.
   
  WARNING: Pump PU7 closed because cannot deliver head at 0:00:00 hrs.
   
  WARNING: Pump PU8 closed because cannot deliver head at 0:00:00 hrs.
  WARNING: Pump PU9 closed because cannot deliver head at 0:00:00 hrs.
  WARNING: Pump PU11 closed because cannot deliver head at 0:00:00 hrs.
   
  WARNING: Pump PU8 closed because cannot deliver head at 0:00:00 hrs.
  WARNING: Pump PU9 closed because cannot deliver head at 0:00:00 hrs.
  WARNING: Pump PU11 closed because cannot deliver head at 0:00:00 hrs.
   